
---------- Begin Simulation Statistics ----------
final_tick                                57387076000                       # Number of ticks from beginning of simulation (restored from checkpoints and never reset)
host_inst_rate                                  71661                       # Simulator instruction rate (inst/s)
host_mem_usage                                 689064                       # Number of bytes of host memory used
host_op_rate                                   158801                       # Simulator op (including micro ops) rate (op/s)
host_seconds                                     0.14                       # Real time elapsed on the host
host_tick_rate                               67717701                       # Simulator tick rate (ticks/s)
sim_freq                                 1000000000000                       # Frequency of simulated ticks
sim_insts                                       10009                       # Number of instructions simulated
sim_ops                                         22202                       # Number of ops (including micro ops) simulated
sim_seconds                                  0.000009                       # Number of seconds simulated
sim_ticks                                     9469000                       # Number of ticks simulated
system.cpu.Branches                                 1                       # Number of branches fetched
system.cpu.committedInsts                           9                       # Number of instructions committed
system.cpu.committedOps                            20                       # Number of ops (including micro ops) committed
system.cpu.dtb.rdAccesses                           4                       # TLB accesses on read requests
system.cpu.dtb.rdMisses                             0                       # TLB misses on read requests
system.cpu.dtb.wrAccesses                           2                       # TLB accesses on write requests
system.cpu.dtb.wrMisses                             0                       # TLB misses on write requests
system.cpu.idle_fraction                            0                       # Percentage of idle cycles
system.cpu.itb.rdAccesses                           0                       # TLB accesses on read requests
system.cpu.itb.rdMisses                             0                       # TLB misses on read requests
system.cpu.itb.wrAccesses                          13                       # TLB accesses on write requests
system.cpu.itb.wrMisses                             0                       # TLB misses on write requests
system.cpu.not_idle_fraction                        1                       # Percentage of non-idle cycles
system.cpu.numCycles                               24                       # number of cpu cycles simulated
system.cpu.numWorkItemsCompleted                    0                       # number of work items this cpu completed
system.cpu.numWorkItemsStarted                      0                       # number of work items this cpu started
system.cpu.num_busy_cycles                         24                       # Number of busy cycles
system.cpu.num_conditional_control_insts            0                       # number of instructions that are conditional controls
system.cpu.num_fp_alu_accesses                     15                       # Number of float alu accesses
system.cpu.num_fp_insts                            15                       # number of float instructions
system.cpu.num_fp_register_reads                   15                       # number of times the floating registers were read
system.cpu.num_fp_register_writes                  14                       # number of times the floating registers were written
system.cpu.num_func_calls                           1                       # number of times a function call or return occured
system.cpu.num_idle_cycles                          0                       # Number of idle cycles
system.cpu.num_int_alu_accesses                    10                       # Number of integer alu accesses
system.cpu.num_int_insts                           10                       # number of integer instructions
system.cpu.num_int_register_reads                  24                       # number of times the integer registers were read
system.cpu.num_int_register_writes                  3                       # number of times the integer registers were written
system.cpu.num_load_insts                           4                       # Number of load instructions
system.cpu.num_mem_refs                             6                       # number of memory refs
system.cpu.num_store_insts                          2                       # Number of store instructions
system.cpu.num_vec_alu_accesses                     0                       # Number of vector alu accesses
system.cpu.num_vec_insts                            0                       # number of vector instructions
system.cpu.num_vec_register_reads                   0                       # number of times the vector registers were read
system.cpu.num_vec_register_writes                  0                       # number of times the vector registers were written
system.cpu.op_class::No_OpClass                     0      0.00%      0.00% # Class of executed instruction
system.cpu.op_class::IntAlu                         6     30.00%     30.00% # Class of executed instruction
system.cpu.op_class::IntMult                        0      0.00%     30.00% # Class of executed instruction
system.cpu.op_class::IntDiv                         0      0.00%     30.00% # Class of executed instruction
system.cpu.op_class::FloatAdd                       4     20.00%     50.00% # Class of executed instruction
system.cpu.op_class::FloatCmp                       0      0.00%     50.00% # Class of executed instruction
system.cpu.op_class::FloatCvt                       0      0.00%     50.00% # Class of executed instruction
system.cpu.op_class::FloatMult                      0      0.00%     50.00% # Class of executed instruction
system.cpu.op_class::FloatMultAcc                   0      0.00%     50.00% # Class of executed instruction
system.cpu.op_class::FloatDiv                       0      0.00%     50.00% # Class of executed instruction
system.cpu.op_class::FloatMisc                      0      0.00%     50.00% # Class of executed instruction
system.cpu.op_class::FloatSqrt                      0      0.00%     50.00% # Class of executed instruction
system.cpu.op_class::SimdAdd                        0      0.00%     50.00% # Class of executed instruction
system.cpu.op_class::SimdAddAcc                     0      0.00%     50.00% # Class of executed instruction
system.cpu.op_class::SimdAlu                        0      0.00%     50.00% # Class of executed instruction
system.cpu.op_class::SimdCmp                        0      0.00%     50.00% # Class of executed instruction
system.cpu.op_class::SimdCvt                        0      0.00%     50.00% # Class of executed instruction
system.cpu.op_class::SimdMisc                       0      0.00%     50.00% # Class of executed instruction
system.cpu.op_class::SimdMult                       0      0.00%     50.00% # Class of executed instruction
system.cpu.op_class::SimdMultAcc                    0      0.00%     50.00% # Class of executed instruction
system.cpu.op_class::SimdShift                      0      0.00%     50.00% # Class of executed instruction
system.cpu.op_class::SimdShiftAcc                   0      0.00%     50.00% # Class of executed instruction
system.cpu.op_class::SimdDiv                        0      0.00%     50.00% # Class of executed instruction
system.cpu.op_class::SimdSqrt                       0      0.00%     50.00% # Class of executed instruction
system.cpu.op_class::SimdFloatAdd                   1      5.00%     55.00% # Class of executed instruction
system.cpu.op_class::SimdFloatAlu                   0      0.00%     55.00% # Class of executed instruction
system.cpu.op_class::SimdFloatCmp                   0      0.00%     55.00% # Class of executed instruction
system.cpu.op_class::SimdFloatCvt                   2     10.00%     65.00% # Class of executed instruction
system.cpu.op_class::SimdFloatDiv                   0      0.00%     65.00% # Class of executed instruction
system.cpu.op_class::SimdFloatMisc                  0      0.00%     65.00% # Class of executed instruction
system.cpu.op_class::SimdFloatMult                  1      5.00%     70.00% # Class of executed instruction
system.cpu.op_class::SimdFloatMultAcc               0      0.00%     70.00% # Class of executed instruction
system.cpu.op_class::SimdFloatSqrt                  0      0.00%     70.00% # Class of executed instruction
system.cpu.op_class::SimdReduceAdd                  0      0.00%     70.00% # Class of executed instruction
system.cpu.op_class::SimdReduceAlu                  0      0.00%     70.00% # Class of executed instruction
system.cpu.op_class::SimdReduceCmp                  0      0.00%     70.00% # Class of executed instruction
system.cpu.op_class::SimdFloatReduceAdd             0      0.00%     70.00% # Class of executed instruction
system.cpu.op_class::SimdFloatReduceCmp             0      0.00%     70.00% # Class of executed instruction
system.cpu.op_class::SimdAes                        0      0.00%     70.00% # Class of executed instruction
system.cpu.op_class::SimdAesMix                     0      0.00%     70.00% # Class of executed instruction
system.cpu.op_class::SimdSha1Hash                   0      0.00%     70.00% # Class of executed instruction
system.cpu.op_class::SimdSha1Hash2                  0      0.00%     70.00% # Class of executed instruction
system.cpu.op_class::SimdSha256Hash                 0      0.00%     70.00% # Class of executed instruction
system.cpu.op_class::SimdSha256Hash2                0      0.00%     70.00% # Class of executed instruction
system.cpu.op_class::SimdShaSigma2                  0      0.00%     70.00% # Class of executed instruction
system.cpu.op_class::SimdShaSigma3                  0      0.00%     70.00% # Class of executed instruction
system.cpu.op_class::SimdPredAlu                    0      0.00%     70.00% # Class of executed instruction
system.cpu.op_class::MemRead                        0      0.00%     70.00% # Class of executed instruction
system.cpu.op_class::MemWrite                       1      5.00%     75.00% # Class of executed instruction
system.cpu.op_class::FloatMemRead                   4     20.00%     95.00% # Class of executed instruction
system.cpu.op_class::FloatMemWrite                  1      5.00%    100.00% # Class of executed instruction
system.cpu.op_class::IprAccess                      0      0.00%    100.00% # Class of executed instruction
system.cpu.op_class::InstPrefetch                   0      0.00%    100.00% # Class of executed instruction
system.cpu.op_class::total                         20                       # Class of executed instruction
system.cpu.workload.numSyscalls                     0                       # Number of system calls
system.membus.snoop_filter.hit_multi_requests            0                       # Number of requests hitting in the snoop filter with multiple (>1) holders of the requested data.
system.membus.snoop_filter.hit_multi_snoops            0                       # Number of snoops hitting in the snoop filter with multiple (>1) holders of the requested data.
system.membus.snoop_filter.hit_single_requests            0                       # Number of requests hitting in the snoop filter with a single holder of the requested data.
system.membus.snoop_filter.hit_single_snoops            0                       # Number of snoops hitting in the snoop filter with a single holder of the requested data.
system.membus.snoop_filter.tot_requests            17                       # Total number of requests made to the snoop filter.
system.membus.snoop_filter.tot_snoops               0                       # Total number of snoops made to the snoop filter.
system.switch_cpus.branchPred.BTBCorrect            0                       # Number of correct BTB predictions (this stat may not work properly.
system.switch_cpus.branchPred.BTBHitPct      0.000000                       # BTB Hit Percentage
system.switch_cpus.branchPred.BTBHits               0                       # Number of BTB hits
system.switch_cpus.branchPred.BTBLookups         2068                       # Number of BTB lookups
system.switch_cpus.branchPred.RASInCorrect           27                       # Number of incorrect RAS predictions.
system.switch_cpus.branchPred.condIncorrect          378                       # Number of conditional branches incorrect
system.switch_cpus.branchPred.condPredicted         2298                       # Number of conditional branches predicted
system.switch_cpus.branchPred.indirectHits         1397                       # Number of indirect target hits.
system.switch_cpus.branchPred.indirectLookups         2068                       # Number of indirect predictor lookups.
system.switch_cpus.branchPred.indirectMisses          671                       # Number of indirect misses.
system.switch_cpus.branchPred.lookups            3360                       # Number of BP lookups
system.switch_cpus.branchPred.usedRAS             652                       # Number of times the RAS was used to get a target.
system.switch_cpus.branchPredindirectMispredicted          175                       # Number of mispredicted indirect branches.
system.switch_cpus.cc_regfile_reads              7216                       # number of cc regfile reads
system.switch_cpus.cc_regfile_writes             3443                       # number of cc regfile writes
system.switch_cpus.commit.amos                      0                       # Number of atomic instructions committed
system.switch_cpus.commit.branchMispredicts          378                       # The number of times a branch was mispredicted
system.switch_cpus.commit.branches               1646                       # Number of branches committed
system.switch_cpus.commit.bw_lim_events          1123                       # number cycles where commit BW limit reached
system.switch_cpus.commit.commitSquashedInsts        19407                       # The number of squashed insts skipped by commit
system.switch_cpus.commit.committedInsts        10000                       # Number of instructions committed
system.switch_cpus.commit.committedOps          22182                       # Number of ops (including micro ops) committed
system.switch_cpus.commit.committed_per_cycle::samples        15269                       # Number of insts commited each cycle
system.switch_cpus.commit.committed_per_cycle::mean     1.452747                       # Number of insts commited each cycle
system.switch_cpus.commit.committed_per_cycle::stdev     2.297884                       # Number of insts commited each cycle
system.switch_cpus.commit.committed_per_cycle::underflows            0      0.00%      0.00% # Number of insts commited each cycle
system.switch_cpus.commit.committed_per_cycle::0         7939     51.99%     51.99% # Number of insts commited each cycle
system.switch_cpus.commit.committed_per_cycle::1         3242     21.23%     73.23% # Number of insts commited each cycle
system.switch_cpus.commit.committed_per_cycle::2          803      5.26%     78.49% # Number of insts commited each cycle
system.switch_cpus.commit.committed_per_cycle::3          974      6.38%     84.86% # Number of insts commited each cycle
system.switch_cpus.commit.committed_per_cycle::4          776      5.08%     89.95% # Number of insts commited each cycle
system.switch_cpus.commit.committed_per_cycle::5          214      1.40%     91.35% # Number of insts commited each cycle
system.switch_cpus.commit.committed_per_cycle::6          132      0.86%     92.21% # Number of insts commited each cycle
system.switch_cpus.commit.committed_per_cycle::7           66      0.43%     92.65% # Number of insts commited each cycle
system.switch_cpus.commit.committed_per_cycle::8         1123      7.35%    100.00% # Number of insts commited each cycle
system.switch_cpus.commit.committed_per_cycle::overflows            0      0.00%    100.00% # Number of insts commited each cycle
system.switch_cpus.commit.committed_per_cycle::min_value            0                       # Number of insts commited each cycle
system.switch_cpus.commit.committed_per_cycle::max_value            8                       # Number of insts commited each cycle
system.switch_cpus.commit.committed_per_cycle::total        15269                       # Number of insts commited each cycle
system.switch_cpus.commit.fp_insts              12222                       # Number of committed floating point instructions.
system.switch_cpus.commit.function_calls          217                       # Number of function calls committed.
system.switch_cpus.commit.int_insts             13820                       # Number of committed integer instructions.
system.switch_cpus.commit.loads                  4301                       # Number of loads committed
system.switch_cpus.commit.membars                   0                       # Number of memory barriers committed
system.switch_cpus.commit.op_class_0::No_OpClass            0      0.00%      0.00% # Class of committed instruction
system.switch_cpus.commit.op_class_0::IntAlu         9105     41.05%     41.05% # Class of committed instruction
system.switch_cpus.commit.op_class_0::IntMult            0      0.00%     41.05% # Class of committed instruction
system.switch_cpus.commit.op_class_0::IntDiv            0      0.00%     41.05% # Class of committed instruction
system.switch_cpus.commit.op_class_0::FloatAdd         3206     14.45%     55.50% # Class of committed instruction
system.switch_cpus.commit.op_class_0::FloatCmp            0      0.00%     55.50% # Class of committed instruction
system.switch_cpus.commit.op_class_0::FloatCvt            0      0.00%     55.50% # Class of committed instruction
system.switch_cpus.commit.op_class_0::FloatMult            0      0.00%     55.50% # Class of committed instruction
system.switch_cpus.commit.op_class_0::FloatMultAcc            0      0.00%     55.50% # Class of committed instruction
system.switch_cpus.commit.op_class_0::FloatDiv            0      0.00%     55.50% # Class of committed instruction
system.switch_cpus.commit.op_class_0::FloatMisc            0      0.00%     55.50% # Class of committed instruction
system.switch_cpus.commit.op_class_0::FloatSqrt            0      0.00%     55.50% # Class of committed instruction
system.switch_cpus.commit.op_class_0::SimdAdd            0      0.00%     55.50% # Class of committed instruction
system.switch_cpus.commit.op_class_0::SimdAddAcc            0      0.00%     55.50% # Class of committed instruction
system.switch_cpus.commit.op_class_0::SimdAlu          778      3.51%     59.01% # Class of committed instruction
system.switch_cpus.commit.op_class_0::SimdCmp            0      0.00%     59.01% # Class of committed instruction
system.switch_cpus.commit.op_class_0::SimdCvt            0      0.00%     59.01% # Class of committed instruction
system.switch_cpus.commit.op_class_0::SimdMisc            0      0.00%     59.01% # Class of committed instruction
system.switch_cpus.commit.op_class_0::SimdMult            0      0.00%     59.01% # Class of committed instruction
system.switch_cpus.commit.op_class_0::SimdMultAcc            0      0.00%     59.01% # Class of committed instruction
system.switch_cpus.commit.op_class_0::SimdShift            0      0.00%     59.01% # Class of committed instruction
system.switch_cpus.commit.op_class_0::SimdShiftAcc            0      0.00%     59.01% # Class of committed instruction
system.switch_cpus.commit.op_class_0::SimdDiv            0      0.00%     59.01% # Class of committed instruction
system.switch_cpus.commit.op_class_0::SimdSqrt            0      0.00%     59.01% # Class of committed instruction
system.switch_cpus.commit.op_class_0::SimdFloatAdd          841      3.79%     62.80% # Class of committed instruction
system.switch_cpus.commit.op_class_0::SimdFloatAlu            0      0.00%     62.80% # Class of committed instruction
system.switch_cpus.commit.op_class_0::SimdFloatCmp            0      0.00%     62.80% # Class of committed instruction
system.switch_cpus.commit.op_class_0::SimdFloatCvt         1667      7.52%     70.31% # Class of committed instruction
system.switch_cpus.commit.op_class_0::SimdFloatDiv          218      0.98%     71.30% # Class of committed instruction
system.switch_cpus.commit.op_class_0::SimdFloatMisc            0      0.00%     71.30% # Class of committed instruction
system.switch_cpus.commit.op_class_0::SimdFloatMult          406      1.83%     73.13% # Class of committed instruction
system.switch_cpus.commit.op_class_0::SimdFloatMultAcc            0      0.00%     73.13% # Class of committed instruction
system.switch_cpus.commit.op_class_0::SimdFloatSqrt            0      0.00%     73.13% # Class of committed instruction
system.switch_cpus.commit.op_class_0::SimdReduceAdd            0      0.00%     73.13% # Class of committed instruction
system.switch_cpus.commit.op_class_0::SimdReduceAlu            0      0.00%     73.13% # Class of committed instruction
system.switch_cpus.commit.op_class_0::SimdReduceCmp            0      0.00%     73.13% # Class of committed instruction
system.switch_cpus.commit.op_class_0::SimdFloatReduceAdd            0      0.00%     73.13% # Class of committed instruction
system.switch_cpus.commit.op_class_0::SimdFloatReduceCmp            0      0.00%     73.13% # Class of committed instruction
system.switch_cpus.commit.op_class_0::SimdAes            0      0.00%     73.13% # Class of committed instruction
system.switch_cpus.commit.op_class_0::SimdAesMix            0      0.00%     73.13% # Class of committed instruction
system.switch_cpus.commit.op_class_0::SimdSha1Hash            0      0.00%     73.13% # Class of committed instruction
system.switch_cpus.commit.op_class_0::SimdSha1Hash2            0      0.00%     73.13% # Class of committed instruction
system.switch_cpus.commit.op_class_0::SimdSha256Hash            0      0.00%     73.13% # Class of committed instruction
system.switch_cpus.commit.op_class_0::SimdSha256Hash2            0      0.00%     73.13% # Class of committed instruction
system.switch_cpus.commit.op_class_0::SimdShaSigma2            0      0.00%     73.13% # Class of committed instruction
system.switch_cpus.commit.op_class_0::SimdShaSigma3            0      0.00%     73.13% # Class of committed instruction
system.switch_cpus.commit.op_class_0::SimdPredAlu            0      0.00%     73.13% # Class of committed instruction
system.switch_cpus.commit.op_class_0::MemRead         1327      5.98%     79.11% # Class of committed instruction
system.switch_cpus.commit.op_class_0::MemWrite          774      3.49%     82.60% # Class of committed instruction
system.switch_cpus.commit.op_class_0::FloatMemRead         2974     13.41%     96.01% # Class of committed instruction
system.switch_cpus.commit.op_class_0::FloatMemWrite          886      3.99%    100.00% # Class of committed instruction
system.switch_cpus.commit.op_class_0::IprAccess            0      0.00%    100.00% # Class of committed instruction
system.switch_cpus.commit.op_class_0::InstPrefetch            0      0.00%    100.00% # Class of committed instruction
system.switch_cpus.commit.op_class_0::total        22182                       # Class of committed instruction
system.switch_cpus.commit.refs                   5961                       # Number of memory references committed
system.switch_cpus.commit.swp_count                 0                       # Number of s/w prefetches committed
system.switch_cpus.commit.vec_insts                 0                       # Number of committed Vector instructions.
system.switch_cpus.committedInsts               10000                       # Number of Instructions Simulated
system.switch_cpus.committedOps                 22182                       # Number of Ops (including micro ops) Simulated
system.switch_cpus.cpi                       1.891400                       # CPI: Cycles Per Instruction
system.switch_cpus.cpi_total                 1.891400                       # CPI: Total CPI of All Threads
system.switch_cpus.decode.BlockedCycles          8194                       # Number of cycles decode is blocked
system.switch_cpus.decode.DecodedInsts          47373                       # Number of instructions handled by decode
system.switch_cpus.decode.IdleCycles             3163                       # Number of cycles decode is idle
system.switch_cpus.decode.RunCycles              5024                       # Number of cycles decode is running
system.switch_cpus.decode.SquashCycles            422                       # Number of cycles decode is squashing
system.switch_cpus.decode.UnblockCycles          1545                       # Number of cycles decode is unblocking
system.switch_cpus.dtb.rdAccesses               10657                       # TLB accesses on read requests
system.switch_cpus.dtb.rdMisses                    46                       # TLB misses on read requests
system.switch_cpus.dtb.wrAccesses                2014                       # TLB accesses on write requests
system.switch_cpus.dtb.wrMisses                     1                       # TLB misses on write requests
system.switch_cpus.fetch.Branches                3360                       # Number of branches that fetch encountered
system.switch_cpus.fetch.CacheLines              3709                       # Number of cache lines fetched
system.switch_cpus.fetch.Cycles                 13658                       # Number of cycles fetch has run and was not squashing or blocked
system.switch_cpus.fetch.IcacheSquashes           102                       # Number of outstanding Icache misses that were squashed
system.switch_cpus.fetch.Insts                  22761                       # Number of instructions fetch has processed
system.switch_cpus.fetch.SquashCycles             844                       # Number of cycles fetch has spent squashing
system.switch_cpus.fetch.branchRate          0.177646                       # Number of branch fetches per cycle
system.switch_cpus.fetch.icacheStallCycles         4272                       # Number of cycles fetch is stalled on an Icache miss
system.switch_cpus.fetch.predictedBranches         2049                       # Number of branches that fetch has predicted taken
system.switch_cpus.fetch.rate                1.203394                       # Number of inst fetches per cycle
system.switch_cpus.fetch.rateDist::samples        18352                       # Number of instructions fetched each cycle (Total)
system.switch_cpus.fetch.rateDist::mean      2.872657                       # Number of instructions fetched each cycle (Total)
system.switch_cpus.fetch.rateDist::stdev     3.512943                       # Number of instructions fetched each cycle (Total)
system.switch_cpus.fetch.rateDist::underflows            0      0.00%      0.00% # Number of instructions fetched each cycle (Total)
system.switch_cpus.fetch.rateDist::0             9898     53.93%     53.93% # Number of instructions fetched each cycle (Total)
system.switch_cpus.fetch.rateDist::1              211      1.15%     55.08% # Number of instructions fetched each cycle (Total)
system.switch_cpus.fetch.rateDist::2             1076      5.86%     60.95% # Number of instructions fetched each cycle (Total)
system.switch_cpus.fetch.rateDist::3              507      2.76%     63.71% # Number of instructions fetched each cycle (Total)
system.switch_cpus.fetch.rateDist::4              583      3.18%     66.89% # Number of instructions fetched each cycle (Total)
system.switch_cpus.fetch.rateDist::5              162      0.88%     67.77% # Number of instructions fetched each cycle (Total)
system.switch_cpus.fetch.rateDist::6              649      3.54%     71.31% # Number of instructions fetched each cycle (Total)
system.switch_cpus.fetch.rateDist::7              329      1.79%     73.10% # Number of instructions fetched each cycle (Total)
system.switch_cpus.fetch.rateDist::8             4937     26.90%    100.00% # Number of instructions fetched each cycle (Total)
system.switch_cpus.fetch.rateDist::overflows            0      0.00%    100.00% # Number of instructions fetched each cycle (Total)
system.switch_cpus.fetch.rateDist::min_value            0                       # Number of instructions fetched each cycle (Total)
system.switch_cpus.fetch.rateDist::max_value            8                       # Number of instructions fetched each cycle (Total)
system.switch_cpus.fetch.rateDist::total        18352                       # Number of instructions fetched each cycle (Total)
system.switch_cpus.fp_regfile_reads             14391                       # number of floating regfile reads
system.switch_cpus.fp_regfile_writes            15455                       # number of floating regfile writes
system.switch_cpus.idleCycles                     562                       # Total number of cycles that the CPU has spent unscheduled due to idling
system.switch_cpus.iew.branchMispredicts          436                       # Number of branch mispredicts detected at execute
system.switch_cpus.iew.exec_branches             2184                       # Number of branches executed
system.switch_cpus.iew.exec_nop                     0                       # number of nop insts executed
system.switch_cpus.iew.exec_rate             1.878344                       # Inst execution rate
system.switch_cpus.iew.exec_refs                11118                       # number of memory reference insts executed
system.switch_cpus.iew.exec_stores               2014                       # Number of stores executed
system.switch_cpus.iew.exec_swp                     0                       # number of swp insts executed
system.switch_cpus.iew.iewBlockCycles            2982                       # Number of cycles IEW is blocking
system.switch_cpus.iew.iewDispLoadInsts          8711                       # Number of dispatched load instructions
system.switch_cpus.iew.iewDispNonSpecInsts            0                       # Number of dispatched non-speculative instructions
system.switch_cpus.iew.iewDispSquashedInsts           25                       # Number of squashed instructions skipped by dispatch
system.switch_cpus.iew.iewDispStoreInsts         3439                       # Number of dispatched store instructions
system.switch_cpus.iew.iewDispatchedInsts        41727                       # Number of instructions dispatched to IQ
system.switch_cpus.iew.iewExecLoadInsts          9104                       # Number of load instructions executed
system.switch_cpus.iew.iewExecSquashedInsts          812                       # Number of squashed instructions skipped in execute
system.switch_cpus.iew.iewExecutedInsts         35527                       # Number of executed instructions
system.switch_cpus.iew.iewIQFullEvents             31                       # Number of times the IQ has become full, causing a stall
system.switch_cpus.iew.iewIdleCycles                0                       # Number of cycles IEW is idle
system.switch_cpus.iew.iewLSQFullEvents             0                       # Number of times the LSQ has become full, causing a stall
system.switch_cpus.iew.iewSquashCycles            422                       # Number of cycles IEW is squashing
system.switch_cpus.iew.iewUnblockCycles            30                       # Number of cycles IEW is unblocking
system.switch_cpus.iew.lsq.thread0.blockedLoads            0                       # Number of blocked loads due to partial load-store forwarding
system.switch_cpus.iew.lsq.thread0.cacheBlocked            0                       # Number of times an access to memory failed due to the cache being blocked
system.switch_cpus.iew.lsq.thread0.forwLoads         1763                       # Number of loads that had data forwarded from stores
system.switch_cpus.iew.lsq.thread0.ignoredResponses           36                       # Number of memory responses ignored because the instruction is squashed
system.switch_cpus.iew.lsq.thread0.invAddrLoads            0                       # Number of loads ignored due to an invalid address
system.switch_cpus.iew.lsq.thread0.invAddrSwpfs            0                       # Number of software prefetches ignored due to an invalid address
system.switch_cpus.iew.lsq.thread0.memOrderViolation           54                       # Number of memory ordering violations
system.switch_cpus.iew.lsq.thread0.rescheduledLoads         2897                       # Number of loads that were rescheduled
system.switch_cpus.iew.lsq.thread0.squashedLoads         4384                       # Number of loads squashed
system.switch_cpus.iew.lsq.thread0.squashedStores         1768                       # Number of stores squashed
system.switch_cpus.iew.memOrderViolationEvents           54                       # Number of memory order violations
system.switch_cpus.iew.predictedNotTakenIncorrect          320                       # Number of branches that were predicted not taken incorrectly
system.switch_cpus.iew.predictedTakenIncorrect          116                       # Number of branches that were predicted taken incorrectly
system.switch_cpus.iew.wb_consumers             29491                       # num instructions consuming a value
system.switch_cpus.iew.wb_count                 32234                       # cumulative count of insts written-back
system.switch_cpus.iew.wb_fanout             0.696280                       # average fanout of values written-back
system.switch_cpus.iew.wb_producers             20534                       # num instructions producing a value
system.switch_cpus.iew.wb_rate               1.704240                       # insts written-back per cycle
system.switch_cpus.iew.wb_sent                  32428                       # cumulative count of insts sent to commit
system.switch_cpus.int_regfile_reads            34099                       # number of integer regfile reads
system.switch_cpus.int_regfile_writes           12334                       # number of integer regfile writes
system.switch_cpus.ipc                       0.528709                       # IPC: Instructions Per Cycle
system.switch_cpus.ipc_total                 0.528709                       # IPC: Total IPC of All Threads
system.switch_cpus.iq.FU_type_0::No_OpClass            0      0.00%      0.00% # Type of FU issued
system.switch_cpus.iq.FU_type_0::IntAlu         14430     39.71%     39.71% # Type of FU issued
system.switch_cpus.iq.FU_type_0::IntMult            0      0.00%     39.71% # Type of FU issued
system.switch_cpus.iq.FU_type_0::IntDiv             0      0.00%     39.71% # Type of FU issued
system.switch_cpus.iq.FU_type_0::FloatAdd         6279     17.28%     56.98% # Type of FU issued
system.switch_cpus.iq.FU_type_0::FloatCmp            0      0.00%     56.98% # Type of FU issued
system.switch_cpus.iq.FU_type_0::FloatCvt            0      0.00%     56.98% # Type of FU issued
system.switch_cpus.iq.FU_type_0::FloatMult            0      0.00%     56.98% # Type of FU issued
system.switch_cpus.iq.FU_type_0::FloatMultAcc            0      0.00%     56.98% # Type of FU issued
system.switch_cpus.iq.FU_type_0::FloatDiv            0      0.00%     56.98% # Type of FU issued
system.switch_cpus.iq.FU_type_0::FloatMisc            0      0.00%     56.98% # Type of FU issued
system.switch_cpus.iq.FU_type_0::FloatSqrt            0      0.00%     56.98% # Type of FU issued
system.switch_cpus.iq.FU_type_0::SimdAdd            0      0.00%     56.98% # Type of FU issued
system.switch_cpus.iq.FU_type_0::SimdAddAcc            0      0.00%     56.98% # Type of FU issued
system.switch_cpus.iq.FU_type_0::SimdAlu          940      2.59%     59.57% # Type of FU issued
system.switch_cpus.iq.FU_type_0::SimdCmp            0      0.00%     59.57% # Type of FU issued
system.switch_cpus.iq.FU_type_0::SimdCvt            0      0.00%     59.57% # Type of FU issued
system.switch_cpus.iq.FU_type_0::SimdMisc            4      0.01%     59.58% # Type of FU issued
system.switch_cpus.iq.FU_type_0::SimdMult            0      0.00%     59.58% # Type of FU issued
system.switch_cpus.iq.FU_type_0::SimdMultAcc            0      0.00%     59.58% # Type of FU issued
system.switch_cpus.iq.FU_type_0::SimdShift            0      0.00%     59.58% # Type of FU issued
system.switch_cpus.iq.FU_type_0::SimdShiftAcc            0      0.00%     59.58% # Type of FU issued
system.switch_cpus.iq.FU_type_0::SimdDiv            0      0.00%     59.58% # Type of FU issued
system.switch_cpus.iq.FU_type_0::SimdSqrt            0      0.00%     59.58% # Type of FU issued
system.switch_cpus.iq.FU_type_0::SimdFloatAdd          900      2.48%     62.06% # Type of FU issued
system.switch_cpus.iq.FU_type_0::SimdFloatAlu            0      0.00%     62.06% # Type of FU issued
system.switch_cpus.iq.FU_type_0::SimdFloatCmp            0      0.00%     62.06% # Type of FU issued
system.switch_cpus.iq.FU_type_0::SimdFloatCvt         1749      4.81%     66.87% # Type of FU issued
system.switch_cpus.iq.FU_type_0::SimdFloatDiv          219      0.60%     67.47% # Type of FU issued
system.switch_cpus.iq.FU_type_0::SimdFloatMisc            0      0.00%     67.47% # Type of FU issued
system.switch_cpus.iq.FU_type_0::SimdFloatMult          431      1.19%     68.66% # Type of FU issued
system.switch_cpus.iq.FU_type_0::SimdFloatMultAcc            0      0.00%     68.66% # Type of FU issued
system.switch_cpus.iq.FU_type_0::SimdFloatSqrt            0      0.00%     68.66% # Type of FU issued
system.switch_cpus.iq.FU_type_0::SimdReduceAdd            0      0.00%     68.66% # Type of FU issued
system.switch_cpus.iq.FU_type_0::SimdReduceAlu            0      0.00%     68.66% # Type of FU issued
system.switch_cpus.iq.FU_type_0::SimdReduceCmp            0      0.00%     68.66% # Type of FU issued
system.switch_cpus.iq.FU_type_0::SimdFloatReduceAdd            0      0.00%     68.66% # Type of FU issued
system.switch_cpus.iq.FU_type_0::SimdFloatReduceCmp            0      0.00%     68.66% # Type of FU issued
system.switch_cpus.iq.FU_type_0::SimdAes            0      0.00%     68.66% # Type of FU issued
system.switch_cpus.iq.FU_type_0::SimdAesMix            0      0.00%     68.66% # Type of FU issued
system.switch_cpus.iq.FU_type_0::SimdSha1Hash            0      0.00%     68.66% # Type of FU issued
system.switch_cpus.iq.FU_type_0::SimdSha1Hash2            0      0.00%     68.66% # Type of FU issued
system.switch_cpus.iq.FU_type_0::SimdSha256Hash            0      0.00%     68.66% # Type of FU issued
system.switch_cpus.iq.FU_type_0::SimdSha256Hash2            0      0.00%     68.66% # Type of FU issued
system.switch_cpus.iq.FU_type_0::SimdShaSigma2            0      0.00%     68.66% # Type of FU issued
system.switch_cpus.iq.FU_type_0::SimdShaSigma3            0      0.00%     68.66% # Type of FU issued
system.switch_cpus.iq.FU_type_0::SimdPredAlu            0      0.00%     68.66% # Type of FU issued
system.switch_cpus.iq.FU_type_0::MemRead         2351      6.47%     75.13% # Type of FU issued
system.switch_cpus.iq.FU_type_0::MemWrite         1148      3.16%     78.28% # Type of FU issued
system.switch_cpus.iq.FU_type_0::FloatMemRead         6962     19.16%     97.44% # Type of FU issued
system.switch_cpus.iq.FU_type_0::FloatMemWrite          930      2.56%    100.00% # Type of FU issued
system.switch_cpus.iq.FU_type_0::IprAccess            0      0.00%    100.00% # Type of FU issued
system.switch_cpus.iq.FU_type_0::InstPrefetch            0      0.00%    100.00% # Type of FU issued
system.switch_cpus.iq.FU_type_0::total          36343                       # Type of FU issued
system.switch_cpus.iq.fp_alu_accesses           20485                       # Number of floating point alu accesses
system.switch_cpus.iq.fp_inst_queue_reads        40673                       # Number of floating instruction queue reads
system.switch_cpus.iq.fp_inst_queue_wakeup_accesses        16679                       # Number of floating instruction queue wakeup accesses
system.switch_cpus.iq.fp_inst_queue_writes        31507                       # Number of floating instruction queue writes
system.switch_cpus.iq.fu_busy_cnt                 389                       # FU busy when requested
system.switch_cpus.iq.fu_busy_rate           0.010704                       # FU busy rate (busy events/executed inst)
system.switch_cpus.iq.fu_full::No_OpClass            0      0.00%      0.00% # attempts to use FU when none available
system.switch_cpus.iq.fu_full::IntAlu               4      1.03%      1.03% # attempts to use FU when none available
system.switch_cpus.iq.fu_full::IntMult              0      0.00%      1.03% # attempts to use FU when none available
system.switch_cpus.iq.fu_full::IntDiv               0      0.00%      1.03% # attempts to use FU when none available
system.switch_cpus.iq.fu_full::FloatAdd             0      0.00%      1.03% # attempts to use FU when none available
system.switch_cpus.iq.fu_full::FloatCmp             0      0.00%      1.03% # attempts to use FU when none available
system.switch_cpus.iq.fu_full::FloatCvt             0      0.00%      1.03% # attempts to use FU when none available
system.switch_cpus.iq.fu_full::FloatMult            0      0.00%      1.03% # attempts to use FU when none available
system.switch_cpus.iq.fu_full::FloatMultAcc            0      0.00%      1.03% # attempts to use FU when none available
system.switch_cpus.iq.fu_full::FloatDiv             0      0.00%      1.03% # attempts to use FU when none available
system.switch_cpus.iq.fu_full::FloatMisc            0      0.00%      1.03% # attempts to use FU when none available
system.switch_cpus.iq.fu_full::FloatSqrt            0      0.00%      1.03% # attempts to use FU when none available
system.switch_cpus.iq.fu_full::SimdAdd              0      0.00%      1.03% # attempts to use FU when none available
system.switch_cpus.iq.fu_full::SimdAddAcc            0      0.00%      1.03% # attempts to use FU when none available
system.switch_cpus.iq.fu_full::SimdAlu              0      0.00%      1.03% # attempts to use FU when none available
system.switch_cpus.iq.fu_full::SimdCmp              0      0.00%      1.03% # attempts to use FU when none available
system.switch_cpus.iq.fu_full::SimdCvt              0      0.00%      1.03% # attempts to use FU when none available
system.switch_cpus.iq.fu_full::SimdMisc             0      0.00%      1.03% # attempts to use FU when none available
system.switch_cpus.iq.fu_full::SimdMult             0      0.00%      1.03% # attempts to use FU when none available
system.switch_cpus.iq.fu_full::SimdMultAcc            0      0.00%      1.03% # attempts to use FU when none available
system.switch_cpus.iq.fu_full::SimdShift            0      0.00%      1.03% # attempts to use FU when none available
system.switch_cpus.iq.fu_full::SimdShiftAcc            0      0.00%      1.03% # attempts to use FU when none available
system.switch_cpus.iq.fu_full::SimdDiv              0      0.00%      1.03% # attempts to use FU when none available
system.switch_cpus.iq.fu_full::SimdSqrt             0      0.00%      1.03% # attempts to use FU when none available
system.switch_cpus.iq.fu_full::SimdFloatAdd            0      0.00%      1.03% # attempts to use FU when none available
system.switch_cpus.iq.fu_full::SimdFloatAlu            0      0.00%      1.03% # attempts to use FU when none available
system.switch_cpus.iq.fu_full::SimdFloatCmp            0      0.00%      1.03% # attempts to use FU when none available
system.switch_cpus.iq.fu_full::SimdFloatCvt            0      0.00%      1.03% # attempts to use FU when none available
system.switch_cpus.iq.fu_full::SimdFloatDiv            0      0.00%      1.03% # attempts to use FU when none available
system.switch_cpus.iq.fu_full::SimdFloatMisc            0      0.00%      1.03% # attempts to use FU when none available
system.switch_cpus.iq.fu_full::SimdFloatMult            0      0.00%      1.03% # attempts to use FU when none available
system.switch_cpus.iq.fu_full::SimdFloatMultAcc            0      0.00%      1.03% # attempts to use FU when none available
system.switch_cpus.iq.fu_full::SimdFloatSqrt            0      0.00%      1.03% # attempts to use FU when none available
system.switch_cpus.iq.fu_full::SimdReduceAdd            0      0.00%      1.03% # attempts to use FU when none available
system.switch_cpus.iq.fu_full::SimdReduceAlu            0      0.00%      1.03% # attempts to use FU when none available
system.switch_cpus.iq.fu_full::SimdReduceCmp            0      0.00%      1.03% # attempts to use FU when none available
system.switch_cpus.iq.fu_full::SimdFloatReduceAdd            0      0.00%      1.03% # attempts to use FU when none available
system.switch_cpus.iq.fu_full::SimdFloatReduceCmp            0      0.00%      1.03% # attempts to use FU when none available
system.switch_cpus.iq.fu_full::SimdAes              0      0.00%      1.03% # attempts to use FU when none available
system.switch_cpus.iq.fu_full::SimdAesMix            0      0.00%      1.03% # attempts to use FU when none available
system.switch_cpus.iq.fu_full::SimdSha1Hash            0      0.00%      1.03% # attempts to use FU when none available
system.switch_cpus.iq.fu_full::SimdSha1Hash2            0      0.00%      1.03% # attempts to use FU when none available
system.switch_cpus.iq.fu_full::SimdSha256Hash            0      0.00%      1.03% # attempts to use FU when none available
system.switch_cpus.iq.fu_full::SimdSha256Hash2            0      0.00%      1.03% # attempts to use FU when none available
system.switch_cpus.iq.fu_full::SimdShaSigma2            0      0.00%      1.03% # attempts to use FU when none available
system.switch_cpus.iq.fu_full::SimdShaSigma3            0      0.00%      1.03% # attempts to use FU when none available
system.switch_cpus.iq.fu_full::SimdPredAlu            0      0.00%      1.03% # attempts to use FU when none available
system.switch_cpus.iq.fu_full::MemRead             37      9.51%     10.54% # attempts to use FU when none available
system.switch_cpus.iq.fu_full::MemWrite            22      5.66%     16.20% # attempts to use FU when none available
system.switch_cpus.iq.fu_full::FloatMemRead          326     83.80%    100.00% # attempts to use FU when none available
system.switch_cpus.iq.fu_full::FloatMemWrite            0      0.00%    100.00% # attempts to use FU when none available
system.switch_cpus.iq.fu_full::IprAccess            0      0.00%    100.00% # attempts to use FU when none available
system.switch_cpus.iq.fu_full::InstPrefetch            0      0.00%    100.00% # attempts to use FU when none available
system.switch_cpus.iq.int_alu_accesses          16247                       # Number of integer alu accesses
system.switch_cpus.iq.int_inst_queue_reads        50794                       # Number of integer instruction queue reads
system.switch_cpus.iq.int_inst_queue_wakeup_accesses        15555                       # Number of integer instruction queue wakeup accesses
system.switch_cpus.iq.int_inst_queue_writes        29675                       # Number of integer instruction queue writes
system.switch_cpus.iq.iqInstsAdded              41727                       # Number of instructions added to the IQ (excludes non-spec)
system.switch_cpus.iq.iqInstsIssued             36343                       # Number of instructions issued
system.switch_cpus.iq.iqSquashedInstsExamined        19403                       # Number of squashed instructions iterated over during squash; mainly for profiling
system.switch_cpus.iq.iqSquashedInstsIssued           44                       # Number of squashed instructions issued
system.switch_cpus.iq.iqSquashedOperandsExamined        28950                       # Number of squashed operands that are examined and possibly removed from graph
system.switch_cpus.iq.issued_per_cycle::samples        18352                       # Number of insts issued each cycle
system.switch_cpus.iq.issued_per_cycle::mean     1.980329                       # Number of insts issued each cycle
system.switch_cpus.iq.issued_per_cycle::stdev     2.087820                       # Number of insts issued each cycle
system.switch_cpus.iq.issued_per_cycle::underflows            0      0.00%      0.00% # Number of insts issued each cycle
system.switch_cpus.iq.issued_per_cycle::0         6318     34.43%     34.43% # Number of insts issued each cycle
system.switch_cpus.iq.issued_per_cycle::1         3307     18.02%     52.45% # Number of insts issued each cycle
system.switch_cpus.iq.issued_per_cycle::2         2506     13.66%     66.10% # Number of insts issued each cycle
system.switch_cpus.iq.issued_per_cycle::3         1810      9.86%     75.96% # Number of insts issued each cycle
system.switch_cpus.iq.issued_per_cycle::4         1821      9.92%     85.89% # Number of insts issued each cycle
system.switch_cpus.iq.issued_per_cycle::5         1204      6.56%     92.45% # Number of insts issued each cycle
system.switch_cpus.iq.issued_per_cycle::6          686      3.74%     96.19% # Number of insts issued each cycle
system.switch_cpus.iq.issued_per_cycle::7          426      2.32%     98.51% # Number of insts issued each cycle
system.switch_cpus.iq.issued_per_cycle::8          274      1.49%    100.00% # Number of insts issued each cycle
system.switch_cpus.iq.issued_per_cycle::overflows            0      0.00%    100.00% # Number of insts issued each cycle
system.switch_cpus.iq.issued_per_cycle::min_value            0                       # Number of insts issued each cycle
system.switch_cpus.iq.issued_per_cycle::max_value            8                       # Number of insts issued each cycle
system.switch_cpus.iq.issued_per_cycle::total        18352                       # Number of insts issued each cycle
system.switch_cpus.iq.rate                   1.921487                       # Inst issue rate
system.switch_cpus.iq.vec_alu_accesses              0                       # Number of vector alu accesses
system.switch_cpus.iq.vec_inst_queue_reads            0                       # Number of vector instruction queue reads
system.switch_cpus.iq.vec_inst_queue_wakeup_accesses            0                       # Number of vector instruction queue wakeup accesses
system.switch_cpus.iq.vec_inst_queue_writes            0                       # Number of vector instruction queue writes
system.switch_cpus.itb.rdAccesses                   0                       # TLB accesses on read requests
system.switch_cpus.itb.rdMisses                     0                       # TLB misses on read requests
system.switch_cpus.itb.wrAccesses                3709                       # TLB accesses on write requests
system.switch_cpus.itb.wrMisses                     1                       # TLB misses on write requests
system.switch_cpus.memDep0.conflictingLoads         4331                       # Number of conflicting loads.
system.switch_cpus.memDep0.conflictingStores         1142                       # Number of conflicting stores.
system.switch_cpus.memDep0.insertedLoads         8711                       # Number of loads inserted to the mem dependence unit.
system.switch_cpus.memDep0.insertedStores         3439                       # Number of stores inserted to the mem dependence unit.
system.switch_cpus.misc_regfile_reads           16004                       # number of misc regfile reads
system.switch_cpus.misc_regfile_writes              1                       # number of misc regfile writes
system.switch_cpus.numCycles                    18914                       # number of cpu cycles simulated
system.switch_cpus.numWorkItemsCompleted            0                       # number of work items this cpu completed
system.switch_cpus.numWorkItemsStarted              0                       # number of work items this cpu started
system.switch_cpus.rename.BlockCycles            4476                       # Number of cycles rename is blocking
system.switch_cpus.rename.CommittedMaps         21105                       # Number of HB maps that are committed
system.switch_cpus.rename.IQFullEvents           3325                       # Number of times rename has blocked due to IQ full
system.switch_cpus.rename.IdleCycles             3927                       # Number of cycles rename is idle
system.switch_cpus.rename.LQFullEvents            250                       # Number of times rename has blocked due to LQ full
system.switch_cpus.rename.ROBFullEvents           104                       # Number of times rename has blocked due to ROB full
system.switch_cpus.rename.RenameLookups        100257                       # Number of register rename lookups that rename has made
system.switch_cpus.rename.RenamedInsts          45185                       # Number of instructions processed by rename
system.switch_cpus.rename.RenamedOperands        44765                       # Number of destination operands rename has renamed
system.switch_cpus.rename.RunCycles              5663                       # Number of cycles rename is running
system.switch_cpus.rename.SquashCycles            422                       # Number of cycles rename is squashing
system.switch_cpus.rename.UnblockCycles          3860                       # Number of cycles rename is unblocking
system.switch_cpus.rename.UndoneMaps            23518                       # Number of HB maps that are undone due to squashing
system.switch_cpus.rename.fp_rename_lookups        22419                       # Number of floating rename lookups
system.switch_cpus.rename.int_rename_lookups        47762                       # Number of integer rename lookups
system.switch_cpus.rename.serializeStallCycles            0                       # count of cycles rename stalled for serializing inst
system.switch_cpus.rename.serializingInsts            0                       # count of serializing insts renamed
system.switch_cpus.rename.skidInsts              8296                       # count of insts added to the skid buffer
system.switch_cpus.rename.tempSerializingInsts            0                       # count of temporary serializing insts renamed
system.switch_cpus.rob.rob_reads                55735                       # The number of ROB reads
system.switch_cpus.rob.rob_writes               86444                       # The number of ROB writes
system.switch_cpus.timesIdled                       5                       # Number of times that the entire CPU went into an idle state and unscheduled itself
system.tol2bus.snoop_filter.hit_multi_requests            0                       # Number of requests hitting in the snoop filter with multiple (>1) holders of the requested data.
system.tol2bus.snoop_filter.hit_multi_snoops            0                       # Number of snoops hitting in the snoop filter with multiple (>1) holders of the requested data.
system.tol2bus.snoop_filter.hit_single_requests            0                       # Number of requests hitting in the snoop filter with a single holder of the requested data.
system.tol2bus.snoop_filter.hit_single_snoops            0                       # Number of snoops hitting in the snoop filter with a single holder of the requested data.
system.tol2bus.snoop_filter.tot_requests           17                       # Total number of requests made to the snoop filter.
system.tol2bus.snoop_filter.tot_snoops              0                       # Total number of snoops made to the snoop filter.
system.membus.pwrStateResidencyTicks::UNDEFINED  57387076000                       # Cumulative time (in ticks) in various power states
system.membus.trans_dist::ReadResp                 16                       # Transaction distribution
system.membus.trans_dist::ReadExReq                 1                       # Transaction distribution
system.membus.trans_dist::ReadExResp                1                       # Transaction distribution
system.membus.trans_dist::ReadSharedReq            16                       # Transaction distribution
system.membus.pkt_count_system.l2.mem_side::system.mem_ctrls.port           34                       # Packet count per connected master and slave (bytes)
system.membus.pkt_count_system.l2.mem_side::total           34                       # Packet count per connected master and slave (bytes)
system.membus.pkt_count::total                     34                       # Packet count per connected master and slave (bytes)
system.membus.pkt_size_system.l2.mem_side::system.mem_ctrls.port         1088                       # Cumulative packet size per connected master and slave (bytes)
system.membus.pkt_size_system.l2.mem_side::total         1088                       # Cumulative packet size per connected master and slave (bytes)
system.membus.pkt_size::total                    1088                       # Cumulative packet size per connected master and slave (bytes)
system.membus.snoops                                0                       # Total snoops (count)
system.membus.snoopTraffic                          0                       # Total snoop traffic (bytes)
system.membus.snoop_fanout::samples                17                       # Request fanout histogram
system.membus.snoop_fanout::mean                    0                       # Request fanout histogram
system.membus.snoop_fanout::stdev                   0                       # Request fanout histogram
system.membus.snoop_fanout::underflows              0      0.00%      0.00% # Request fanout histogram
system.membus.snoop_fanout::0                      17    100.00%    100.00% # Request fanout histogram
system.membus.snoop_fanout::1                       0      0.00%    100.00% # Request fanout histogram
system.membus.snoop_fanout::overflows               0      0.00%    100.00% # Request fanout histogram
system.membus.snoop_fanout::min_value               0                       # Request fanout histogram
system.membus.snoop_fanout::max_value               0                       # Request fanout histogram
system.membus.snoop_fanout::total                  17                       # Request fanout histogram
system.membus.reqLayer2.occupancy               17500                       # Layer occupancy (ticks)
system.membus.reqLayer2.utilization               0.2                       # Layer utilization (%)
system.membus.respLayer1.occupancy              79000                       # Layer occupancy (ticks)
system.membus.respLayer1.utilization              0.8                       # Layer utilization (%)
system.switch_cpus.pwrStateResidencyTicks::OFF      9469000                       # Cumulative time (in ticks) in various power states
system.switch_cpus.dtb.walker.pwrStateResidencyTicks::UNDEFINED  57387076000                       # Cumulative time (in ticks) in various power states
system.switch_cpus.itb.walker.pwrStateResidencyTicks::UNDEFINED  57387076000                       # Cumulative time (in ticks) in various power states
system.tol2bus.pwrStateResidencyTicks::UNDEFINED  57387076000                       # Cumulative time (in ticks) in various power states
system.tol2bus.trans_dist::ReadResp                16                       # Transaction distribution
system.tol2bus.trans_dist::ReadExReq                1                       # Transaction distribution
system.tol2bus.trans_dist::ReadExResp               1                       # Transaction distribution
system.tol2bus.trans_dist::ReadCleanReq            11                       # Transaction distribution
system.tol2bus.trans_dist::ReadSharedReq            5                       # Transaction distribution
system.tol2bus.pkt_count_system.cpu.icache.mem_side::system.l2.cpu_side           22                       # Packet count per connected master and slave (bytes)
system.tol2bus.pkt_count_system.cpu.dcache.mem_side::system.l2.cpu_side           12                       # Packet count per connected master and slave (bytes)
system.tol2bus.pkt_count::total                    34                       # Packet count per connected master and slave (bytes)
system.tol2bus.pkt_size_system.cpu.icache.mem_side::system.l2.cpu_side          704                       # Cumulative packet size per connected master and slave (bytes)
system.tol2bus.pkt_size_system.cpu.dcache.mem_side::system.l2.cpu_side          384                       # Cumulative packet size per connected master and slave (bytes)
system.tol2bus.pkt_size::total                   1088                       # Cumulative packet size per connected master and slave (bytes)
system.tol2bus.snoops                               0                       # Total snoops (count)
system.tol2bus.snoopTraffic                         0                       # Total snoop traffic (bytes)
system.tol2bus.snoop_fanout::samples               17                       # Request fanout histogram
system.tol2bus.snoop_fanout::mean                   0                       # Request fanout histogram
system.tol2bus.snoop_fanout::stdev                  0                       # Request fanout histogram
system.tol2bus.snoop_fanout::underflows             0      0.00%      0.00% # Request fanout histogram
system.tol2bus.snoop_fanout::0                     17    100.00%    100.00% # Request fanout histogram
system.tol2bus.snoop_fanout::1                      0      0.00%    100.00% # Request fanout histogram
system.tol2bus.snoop_fanout::2                      0      0.00%    100.00% # Request fanout histogram
system.tol2bus.snoop_fanout::3                      0      0.00%    100.00% # Request fanout histogram
system.tol2bus.snoop_fanout::4                      0      0.00%    100.00% # Request fanout histogram
system.tol2bus.snoop_fanout::overflows              0      0.00%    100.00% # Request fanout histogram
system.tol2bus.snoop_fanout::min_value              0                       # Request fanout histogram
system.tol2bus.snoop_fanout::max_value              0                       # Request fanout histogram
system.tol2bus.snoop_fanout::total                 17                       # Request fanout histogram
system.tol2bus.reqLayer0.occupancy               7500                       # Layer occupancy (ticks)
system.tol2bus.reqLayer0.utilization              0.1                       # Layer utilization (%)
system.tol2bus.respLayer1.occupancy              7500                       # Layer occupancy (ticks)
system.tol2bus.respLayer1.utilization             0.1                       # Layer utilization (%)
system.tol2bus.respLayer0.occupancy             15000                       # Layer occupancy (ticks)
system.tol2bus.respLayer0.utilization             0.2                       # Layer utilization (%)
system.voltage_domain.voltage                       1                       # Voltage in Volts
system.clk_domain.clock                          1000                       # Clock period in ticks
system.l2.pwrStateResidencyTicks::UNDEFINED  57387076000                       # Cumulative time (in ticks) in various power states
system.l2.demand_misses::.cpu.inst                  1                       # number of demand (read+write) misses
system.l2.demand_misses::.cpu.data                  1                       # number of demand (read+write) misses
system.l2.demand_misses::.switch_cpus.inst           10                       # number of demand (read+write) misses
system.l2.demand_misses::.switch_cpus.data            5                       # number of demand (read+write) misses
system.l2.demand_misses::total                     17                       # number of demand (read+write) misses
system.l2.overall_misses::.cpu.inst                 1                       # number of overall misses
system.l2.overall_misses::.cpu.data                 1                       # number of overall misses
system.l2.overall_misses::.switch_cpus.inst           10                       # number of overall misses
system.l2.overall_misses::.switch_cpus.data            5                       # number of overall misses
system.l2.overall_misses::total                    17                       # number of overall misses
system.l2.demand_miss_latency::.switch_cpus.inst       716000                       # number of demand (read+write) miss cycles
system.l2.demand_miss_latency::.switch_cpus.data       366000                       # number of demand (read+write) miss cycles
system.l2.demand_miss_latency::total          1082000                       # number of demand (read+write) miss cycles
system.l2.overall_miss_latency::.switch_cpus.inst       716000                       # number of overall miss cycles
system.l2.overall_miss_latency::.switch_cpus.data       366000                       # number of overall miss cycles
system.l2.overall_miss_latency::total         1082000                       # number of overall miss cycles
system.l2.demand_accesses::.cpu.inst                1                       # number of demand (read+write) accesses
system.l2.demand_accesses::.cpu.data                1                       # number of demand (read+write) accesses
system.l2.demand_accesses::.switch_cpus.inst           10                       # number of demand (read+write) accesses
system.l2.demand_accesses::.switch_cpus.data            5                       # number of demand (read+write) accesses
system.l2.demand_accesses::total                   17                       # number of demand (read+write) accesses
system.l2.overall_accesses::.cpu.inst               1                       # number of overall (read+write) accesses
system.l2.overall_accesses::.cpu.data               1                       # number of overall (read+write) accesses
system.l2.overall_accesses::.switch_cpus.inst           10                       # number of overall (read+write) accesses
system.l2.overall_accesses::.switch_cpus.data            5                       # number of overall (read+write) accesses
system.l2.overall_accesses::total                  17                       # number of overall (read+write) accesses
system.l2.demand_miss_rate::.cpu.inst               1                       # miss rate for demand accesses
system.l2.demand_miss_rate::.cpu.data               1                       # miss rate for demand accesses
system.l2.demand_miss_rate::.switch_cpus.inst            1                       # miss rate for demand accesses
system.l2.demand_miss_rate::.switch_cpus.data            1                       # miss rate for demand accesses
system.l2.demand_miss_rate::total                   1                       # miss rate for demand accesses
system.l2.overall_miss_rate::.cpu.inst              1                       # miss rate for overall accesses
system.l2.overall_miss_rate::.cpu.data              1                       # miss rate for overall accesses
system.l2.overall_miss_rate::.switch_cpus.inst            1                       # miss rate for overall accesses
system.l2.overall_miss_rate::.switch_cpus.data            1                       # miss rate for overall accesses
system.l2.overall_miss_rate::total                  1                       # miss rate for overall accesses
system.l2.demand_avg_miss_latency::.switch_cpus.inst        71600                       # average overall miss latency
system.l2.demand_avg_miss_latency::.switch_cpus.data        73200                       # average overall miss latency
system.l2.demand_avg_miss_latency::total 63647.058824                       # average overall miss latency
system.l2.overall_avg_miss_latency::.switch_cpus.inst        71600                       # average overall miss latency
system.l2.overall_avg_miss_latency::.switch_cpus.data        73200                       # average overall miss latency
system.l2.overall_avg_miss_latency::total 63647.058824                       # average overall miss latency
system.l2.blocked_cycles::no_mshrs                  0                       # number of cycles access was blocked
system.l2.blocked_cycles::no_targets                0                       # number of cycles access was blocked
system.l2.blocked::no_mshrs                         0                       # number of cycles access was blocked
system.l2.blocked::no_targets                       0                       # number of cycles access was blocked
system.l2.avg_blocked_cycles::no_mshrs            nan                       # average number of cycles each access was blocked
system.l2.avg_blocked_cycles::no_targets          nan                       # average number of cycles each access was blocked
system.l2.demand_mshr_misses::.switch_cpus.inst           10                       # number of demand (read+write) MSHR misses
system.l2.demand_mshr_misses::.switch_cpus.data            5                       # number of demand (read+write) MSHR misses
system.l2.demand_mshr_misses::total                15                       # number of demand (read+write) MSHR misses
system.l2.overall_mshr_misses::.switch_cpus.inst           10                       # number of overall MSHR misses
system.l2.overall_mshr_misses::.switch_cpus.data            5                       # number of overall MSHR misses
system.l2.overall_mshr_misses::total               15                       # number of overall MSHR misses
system.l2.demand_mshr_miss_latency::.switch_cpus.inst       616000                       # number of demand (read+write) MSHR miss cycles
system.l2.demand_mshr_miss_latency::.switch_cpus.data       316000                       # number of demand (read+write) MSHR miss cycles
system.l2.demand_mshr_miss_latency::total       932000                       # number of demand (read+write) MSHR miss cycles
system.l2.overall_mshr_miss_latency::.switch_cpus.inst       616000                       # number of overall MSHR miss cycles
system.l2.overall_mshr_miss_latency::.switch_cpus.data       316000                       # number of overall MSHR miss cycles
system.l2.overall_mshr_miss_latency::total       932000                       # number of overall MSHR miss cycles
system.l2.demand_mshr_miss_rate::.switch_cpus.inst            1                       # mshr miss rate for demand accesses
system.l2.demand_mshr_miss_rate::.switch_cpus.data            1                       # mshr miss rate for demand accesses
system.l2.demand_mshr_miss_rate::total       0.882353                       # mshr miss rate for demand accesses
system.l2.overall_mshr_miss_rate::.switch_cpus.inst            1                       # mshr miss rate for overall accesses
system.l2.overall_mshr_miss_rate::.switch_cpus.data            1                       # mshr miss rate for overall accesses
system.l2.overall_mshr_miss_rate::total      0.882353                       # mshr miss rate for overall accesses
system.l2.demand_avg_mshr_miss_latency::.switch_cpus.inst        61600                       # average overall mshr miss latency
system.l2.demand_avg_mshr_miss_latency::.switch_cpus.data        63200                       # average overall mshr miss latency
system.l2.demand_avg_mshr_miss_latency::total 62133.333333                       # average overall mshr miss latency
system.l2.overall_avg_mshr_miss_latency::.switch_cpus.inst        61600                       # average overall mshr miss latency
system.l2.overall_avg_mshr_miss_latency::.switch_cpus.data        63200                       # average overall mshr miss latency
system.l2.overall_avg_mshr_miss_latency::total 62133.333333                       # average overall mshr miss latency
system.l2.replacements                              0                       # number of replacements
system.l2.ReadExReq_misses::.switch_cpus.data            1                       # number of ReadExReq misses
system.l2.ReadExReq_misses::total                   1                       # number of ReadExReq misses
system.l2.ReadExReq_miss_latency::.switch_cpus.data        84000                       # number of ReadExReq miss cycles
system.l2.ReadExReq_miss_latency::total         84000                       # number of ReadExReq miss cycles
system.l2.ReadExReq_accesses::.switch_cpus.data            1                       # number of ReadExReq accesses(hits+misses)
system.l2.ReadExReq_accesses::total                 1                       # number of ReadExReq accesses(hits+misses)
system.l2.ReadExReq_miss_rate::.switch_cpus.data            1                       # miss rate for ReadExReq accesses
system.l2.ReadExReq_miss_rate::total                1                       # miss rate for ReadExReq accesses
system.l2.ReadExReq_avg_miss_latency::.switch_cpus.data        84000                       # average ReadExReq miss latency
system.l2.ReadExReq_avg_miss_latency::total        84000                       # average ReadExReq miss latency
system.l2.ReadExReq_mshr_misses::.switch_cpus.data            1                       # number of ReadExReq MSHR misses
system.l2.ReadExReq_mshr_misses::total              1                       # number of ReadExReq MSHR misses
system.l2.ReadExReq_mshr_miss_latency::.switch_cpus.data        74000                       # number of ReadExReq MSHR miss cycles
system.l2.ReadExReq_mshr_miss_latency::total        74000                       # number of ReadExReq MSHR miss cycles
system.l2.ReadExReq_mshr_miss_rate::.switch_cpus.data            1                       # mshr miss rate for ReadExReq accesses
system.l2.ReadExReq_mshr_miss_rate::total            1                       # mshr miss rate for ReadExReq accesses
system.l2.ReadExReq_avg_mshr_miss_latency::.switch_cpus.data        74000                       # average ReadExReq mshr miss latency
system.l2.ReadExReq_avg_mshr_miss_latency::total        74000                       # average ReadExReq mshr miss latency
system.l2.ReadCleanReq_misses::.cpu.inst            1                       # number of ReadCleanReq misses
system.l2.ReadCleanReq_misses::.switch_cpus.inst           10                       # number of ReadCleanReq misses
system.l2.ReadCleanReq_misses::total               11                       # number of ReadCleanReq misses
system.l2.ReadCleanReq_miss_latency::.switch_cpus.inst       716000                       # number of ReadCleanReq miss cycles
system.l2.ReadCleanReq_miss_latency::total       716000                       # number of ReadCleanReq miss cycles
system.l2.ReadCleanReq_accesses::.cpu.inst            1                       # number of ReadCleanReq accesses(hits+misses)
system.l2.ReadCleanReq_accesses::.switch_cpus.inst           10                       # number of ReadCleanReq accesses(hits+misses)
system.l2.ReadCleanReq_accesses::total             11                       # number of ReadCleanReq accesses(hits+misses)
system.l2.ReadCleanReq_miss_rate::.cpu.inst            1                       # miss rate for ReadCleanReq accesses
system.l2.ReadCleanReq_miss_rate::.switch_cpus.inst            1                       # miss rate for ReadCleanReq accesses
system.l2.ReadCleanReq_miss_rate::total             1                       # miss rate for ReadCleanReq accesses
system.l2.ReadCleanReq_avg_miss_latency::.switch_cpus.inst        71600                       # average ReadCleanReq miss latency
system.l2.ReadCleanReq_avg_miss_latency::total 65090.909091                       # average ReadCleanReq miss latency
system.l2.ReadCleanReq_mshr_misses::.switch_cpus.inst           10                       # number of ReadCleanReq MSHR misses
system.l2.ReadCleanReq_mshr_misses::total           10                       # number of ReadCleanReq MSHR misses
system.l2.ReadCleanReq_mshr_miss_latency::.switch_cpus.inst       616000                       # number of ReadCleanReq MSHR miss cycles
system.l2.ReadCleanReq_mshr_miss_latency::total       616000                       # number of ReadCleanReq MSHR miss cycles
system.l2.ReadCleanReq_mshr_miss_rate::.switch_cpus.inst            1                       # mshr miss rate for ReadCleanReq accesses
system.l2.ReadCleanReq_mshr_miss_rate::total     0.909091                       # mshr miss rate for ReadCleanReq accesses
system.l2.ReadCleanReq_avg_mshr_miss_latency::.switch_cpus.inst        61600                       # average ReadCleanReq mshr miss latency
system.l2.ReadCleanReq_avg_mshr_miss_latency::total        61600                       # average ReadCleanReq mshr miss latency
system.l2.ReadSharedReq_misses::.cpu.data            1                       # number of ReadSharedReq misses
system.l2.ReadSharedReq_misses::.switch_cpus.data            4                       # number of ReadSharedReq misses
system.l2.ReadSharedReq_misses::total               5                       # number of ReadSharedReq misses
system.l2.ReadSharedReq_miss_latency::.switch_cpus.data       282000                       # number of ReadSharedReq miss cycles
system.l2.ReadSharedReq_miss_latency::total       282000                       # number of ReadSharedReq miss cycles
system.l2.ReadSharedReq_accesses::.cpu.data            1                       # number of ReadSharedReq accesses(hits+misses)
system.l2.ReadSharedReq_accesses::.switch_cpus.data            4                       # number of ReadSharedReq accesses(hits+misses)
system.l2.ReadSharedReq_accesses::total             5                       # number of ReadSharedReq accesses(hits+misses)
system.l2.ReadSharedReq_miss_rate::.cpu.data            1                       # miss rate for ReadSharedReq accesses
system.l2.ReadSharedReq_miss_rate::.switch_cpus.data            1                       # miss rate for ReadSharedReq accesses
system.l2.ReadSharedReq_miss_rate::total            1                       # miss rate for ReadSharedReq accesses
system.l2.ReadSharedReq_avg_miss_latency::.switch_cpus.data        70500                       # average ReadSharedReq miss latency
system.l2.ReadSharedReq_avg_miss_latency::total        56400                       # average ReadSharedReq miss latency
system.l2.ReadSharedReq_mshr_misses::.switch_cpus.data            4                       # number of ReadSharedReq MSHR misses
system.l2.ReadSharedReq_mshr_misses::total            4                       # number of ReadSharedReq MSHR misses
system.l2.ReadSharedReq_mshr_miss_latency::.switch_cpus.data       242000                       # number of ReadSharedReq MSHR miss cycles
system.l2.ReadSharedReq_mshr_miss_latency::total       242000                       # number of ReadSharedReq MSHR miss cycles
system.l2.ReadSharedReq_mshr_miss_rate::.switch_cpus.data            1                       # mshr miss rate for ReadSharedReq accesses
system.l2.ReadSharedReq_mshr_miss_rate::total     0.800000                       # mshr miss rate for ReadSharedReq accesses
system.l2.ReadSharedReq_avg_mshr_miss_latency::.switch_cpus.data        60500                       # average ReadSharedReq mshr miss latency
system.l2.ReadSharedReq_avg_mshr_miss_latency::total        60500                       # average ReadSharedReq mshr miss latency
system.l2.tags.pwrStateResidencyTicks::UNDEFINED  57387076000                       # Cumulative time (in ticks) in various power states
system.l2.tags.tagsinuse                    16.073978                       # Cycle average of tags in use
system.l2.tags.total_refs                           0                       # Total number of references to valid blocks.
[...]
system.cpu.icache.tags.occ_task_id_blocks::1024           13                       # Occupied blocks per task id
system.cpu.icache.tags.age_task_id_blocks_1024::3           13                       # Occupied blocks per task id
system.cpu.icache.tags.occ_task_id_percent::1024     0.012695                       # Percentage of cache occupancy per task id
system.cpu.icache.tags.tag_accesses           4824565                       # Number of tag accesses
system.cpu.icache.tags.data_accesses          4824565                       # Number of data accesses
system.cpu.dtb.walker.pwrStateResidencyTicks::UNDEFINED  64630247500                       # Cumulative time (in ticks) in various power states
system.cpu.interrupts.clk_domain.clock           8000                       # Clock period in ticks
system.cpu.itb_walker_cache.pwrStateResidencyTicks::UNDEFINED  64630247500                       # Cumulative time (in ticks) in various power states
system.cpu.itb_walker_cache.blocked_cycles::no_mshrs            0                       # number of cycles access was blocked
system.cpu.itb_walker_cache.blocked_cycles::no_targets            0                       # number of cycles access was blocked
system.cpu.itb_walker_cache.blocked::no_mshrs            0                       # number of cycles access was blocked
system.cpu.itb_walker_cache.blocked::no_targets            0                       # number of cycles access was blocked
system.cpu.itb_walker_cache.avg_blocked_cycles::no_mshrs          nan                       # average number of cycles each access was blocked
system.cpu.itb_walker_cache.avg_blocked_cycles::no_targets          nan                       # average number of cycles each access was blocked
system.cpu.itb_walker_cache.replacements            0                       # number of replacements
system.cpu.itb_walker_cache.tags.pwrStateResidencyTicks::UNDEFINED  64630247500                       # Cumulative time (in ticks) in various power states
system.cpu.itb_walker_cache.tags.tagsinuse            0                       # Cycle average of tags in use
system.cpu.itb_walker_cache.tags.total_refs            0                       # Total number of references to valid blocks.
system.cpu.itb_walker_cache.tags.sampled_refs            0                       # Sample count of references to valid blocks.
system.cpu.itb_walker_cache.tags.avg_refs          nan                       # Average number of references to valid blocks.
system.cpu.itb_walker_cache.tags.warmup_cycle            0                       # Cycle when the warmup percentage was hit.
system.cpu.itb_walker_cache.tags.tag_accesses            0                       # Number of tag accesses
system.cpu.itb_walker_cache.tags.data_accesses            0                       # Number of data accesses
system.cpu.itb.walker.pwrStateResidencyTicks::UNDEFINED  64630247500                       # Cumulative time (in ticks) in various power states
system.cpu.dtb_walker_cache.pwrStateResidencyTicks::UNDEFINED  64630247500                       # Cumulative time (in ticks) in various power states
system.cpu.dtb_walker_cache.blocked_cycles::no_mshrs            0                       # number of cycles access was blocked
system.cpu.dtb_walker_cache.blocked_cycles::no_targets            0                       # number of cycles access was blocked
system.cpu.dtb_walker_cache.blocked::no_mshrs            0                       # number of cycles access was blocked
system.cpu.dtb_walker_cache.blocked::no_targets            0                       # number of cycles access was blocked
system.cpu.dtb_walker_cache.avg_blocked_cycles::no_mshrs          nan                       # average number of cycles each access was blocked
system.cpu.dtb_walker_cache.avg_blocked_cycles::no_targets          nan                       # average number of cycles each access was blocked
system.cpu.dtb_walker_cache.replacements            0                       # number of replacements
system.cpu.dtb_walker_cache.tags.pwrStateResidencyTicks::UNDEFINED  64630247500                       # Cumulative time (in ticks) in various power states
system.cpu.dtb_walker_cache.tags.tagsinuse            0                       # Cycle average of tags in use
system.cpu.dtb_walker_cache.tags.total_refs            0                       # Total number of references to valid blocks.
system.cpu.dtb_walker_cache.tags.sampled_refs            0                       # Sample count of references to valid blocks.
system.cpu.dtb_walker_cache.tags.avg_refs          nan                       # Average number of references to valid blocks.
system.cpu.dtb_walker_cache.tags.warmup_cycle            0                       # Cycle when the warmup percentage was hit.
system.cpu.dtb_walker_cache.tags.tag_accesses            0                       # Number of tag accesses
system.cpu.dtb_walker_cache.tags.data_accesses            0                       # Number of data accesses
system.cpu.dcache.pwrStateResidencyTicks::UNDEFINED  64630247500                       # Cumulative time (in ticks) in various power states
system.cpu.dcache.demand_hits::.cpu.data            5                       # number of demand (read+write) hits
system.cpu.dcache.demand_hits::.switch_cpus.data      4950958                       # number of demand (read+write) hits
system.cpu.dcache.demand_hits::total          4950963                       # number of demand (read+write) hits
system.cpu.dcache.overall_hits::.cpu.data            5                       # number of overall hits
system.cpu.dcache.overall_hits::.switch_cpus.data      4950958                       # number of overall hits
system.cpu.dcache.overall_hits::total         4950963                       # number of overall hits
system.cpu.dcache.demand_misses::.cpu.data            1                       # number of demand (read+write) misses
system.cpu.dcache.demand_misses::.switch_cpus.data           15                       # number of demand (read+write) misses
system.cpu.dcache.demand_misses::total             16                       # number of demand (read+write) misses
system.cpu.dcache.overall_misses::.cpu.data            1                       # number of overall misses
system.cpu.dcache.overall_misses::.switch_cpus.data           15                       # number of overall misses
system.cpu.dcache.overall_misses::total            16                       # number of overall misses
system.cpu.dcache.demand_miss_latency::.switch_cpus.data       828000                       # number of demand (read+write) miss cycles
system.cpu.dcache.demand_miss_latency::total       828000                       # number of demand (read+write) miss cycles
system.cpu.dcache.overall_miss_latency::.switch_cpus.data       828000                       # number of overall miss cycles
system.cpu.dcache.overall_miss_latency::total       828000                       # number of overall miss cycles
system.cpu.dcache.demand_accesses::.cpu.data            6                       # number of demand (read+write) accesses
system.cpu.dcache.demand_accesses::.switch_cpus.data      4950973                       # number of demand (read+write) accesses
system.cpu.dcache.demand_accesses::total      4950979                       # number of demand (read+write) accesses
system.cpu.dcache.overall_accesses::.cpu.data            6                       # number of overall (read+write) accesses
system.cpu.dcache.overall_accesses::.switch_cpus.data      4950973                       # number of overall (read+write) accesses
system.cpu.dcache.overall_accesses::total      4950979                       # number of overall (read+write) accesses
system.cpu.dcache.demand_miss_rate::.cpu.data     0.166667                       # miss rate for demand accesses
system.cpu.dcache.demand_miss_rate::.switch_cpus.data     0.000003                       # miss rate for demand accesses
system.cpu.dcache.demand_miss_rate::total     0.000003                       # miss rate for demand accesses
system.cpu.dcache.overall_miss_rate::.cpu.data     0.166667                       # miss rate for overall accesses
system.cpu.dcache.overall_miss_rate::.switch_cpus.data     0.000003                       # miss rate for overall accesses
system.cpu.dcache.overall_miss_rate::total     0.000003                       # miss rate for overall accesses
system.cpu.dcache.demand_avg_miss_latency::.switch_cpus.data        55200                       # average overall miss latency
system.cpu.dcache.demand_avg_miss_latency::total        51750                       # average overall miss latency
system.cpu.dcache.overall_avg_miss_latency::.switch_cpus.data        55200                       # average overall miss latency
system.cpu.dcache.overall_avg_miss_latency::total        51750                       # average overall miss latency
system.cpu.dcache.blocked_cycles::no_mshrs            0                       # number of cycles access was blocked
system.cpu.dcache.blocked_cycles::no_targets            0                       # number of cycles access was blocked
system.cpu.dcache.blocked::no_mshrs                 0                       # number of cycles access was blocked
system.cpu.dcache.blocked::no_targets               0                       # number of cycles access was blocked
system.cpu.dcache.avg_blocked_cycles::no_mshrs          nan                       # average number of cycles each access was blocked
system.cpu.dcache.avg_blocked_cycles::no_targets          nan                       # average number of cycles each access was blocked
system.cpu.dcache.demand_mshr_hits::.switch_cpus.data           10                       # number of demand (read+write) MSHR hits
system.cpu.dcache.demand_mshr_hits::total           10                       # number of demand (read+write) MSHR hits
system.cpu.dcache.overall_mshr_hits::.switch_cpus.data           10                       # number of overall MSHR hits
system.cpu.dcache.overall_mshr_hits::total           10                       # number of overall MSHR hits
system.cpu.dcache.demand_mshr_misses::.switch_cpus.data            5                       # number of demand (read+write) MSHR misses
system.cpu.dcache.demand_mshr_misses::total            5                       # number of demand (read+write) MSHR misses
system.cpu.dcache.overall_mshr_misses::.switch_cpus.data            5                       # number of overall MSHR misses
system.cpu.dcache.overall_mshr_misses::total            5                       # number of overall MSHR misses
system.cpu.dcache.demand_mshr_miss_latency::.switch_cpus.data       373500                       # number of demand (read+write) MSHR miss cycles
system.cpu.dcache.demand_mshr_miss_latency::total       373500                       # number of demand (read+write) MSHR miss cycles
system.cpu.dcache.overall_mshr_miss_latency::.switch_cpus.data       373500                       # number of overall MSHR miss cycles
system.cpu.dcache.overall_mshr_miss_latency::total       373500                       # number of overall MSHR miss cycles
system.cpu.dcache.demand_mshr_miss_rate::.switch_cpus.data     0.000001                       # mshr miss rate for demand accesses
system.cpu.dcache.demand_mshr_miss_rate::total     0.000001                       # mshr miss rate for demand accesses
system.cpu.dcache.overall_mshr_miss_rate::.switch_cpus.data     0.000001                       # mshr miss rate for overall accesses
system.cpu.dcache.overall_mshr_miss_rate::total     0.000001                       # mshr miss rate for overall accesses
system.cpu.dcache.demand_avg_mshr_miss_latency::.switch_cpus.data        74700                       # average overall mshr miss latency
system.cpu.dcache.demand_avg_mshr_miss_latency::total        74700                       # average overall mshr miss latency
system.cpu.dcache.overall_avg_mshr_miss_latency::.switch_cpus.data        74700                       # average overall mshr miss latency
system.cpu.dcache.overall_avg_mshr_miss_latency::total        74700                       # average overall mshr miss latency
system.cpu.dcache.replacements                      0                       # number of replacements
system.cpu.dcache.ReadReq_hits::.cpu.data            3                       # number of ReadReq hits
system.cpu.dcache.ReadReq_hits::.switch_cpus.data      3268341                       # number of ReadReq hits
system.cpu.dcache.ReadReq_hits::total         3268344                       # number of ReadReq hits
system.cpu.dcache.ReadReq_misses::.cpu.data            1                       # number of ReadReq misses
system.cpu.dcache.ReadReq_misses::.switch_cpus.data           14                       # number of ReadReq misses
system.cpu.dcache.ReadReq_misses::total            15                       # number of ReadReq misses
system.cpu.dcache.ReadReq_miss_latency::.switch_cpus.data       741500                       # number of ReadReq miss cycles
system.cpu.dcache.ReadReq_miss_latency::total       741500                       # number of ReadReq miss cycles
system.cpu.dcache.ReadReq_accesses::.cpu.data            4                       # number of ReadReq accesses(hits+misses)
system.cpu.dcache.ReadReq_accesses::.switch_cpus.data      3268355                       # number of ReadReq accesses(hits+misses)
system.cpu.dcache.ReadReq_accesses::total      3268359                       # number of ReadReq accesses(hits+misses)
system.cpu.dcache.ReadReq_miss_rate::.cpu.data     0.250000                       # miss rate for ReadReq accesses
system.cpu.dcache.ReadReq_miss_rate::.switch_cpus.data     0.000004                       # miss rate for ReadReq accesses
system.cpu.dcache.ReadReq_miss_rate::total     0.000005                       # miss rate for ReadReq accesses
system.cpu.dcache.ReadReq_avg_miss_latency::.switch_cpus.data 52964.285714                       # average ReadReq miss latency
system.cpu.dcache.ReadReq_avg_miss_latency::total 49433.333333                       # average ReadReq miss latency
system.cpu.dcache.ReadReq_mshr_hits::.switch_cpus.data           10                       # number of ReadReq MSHR hits
system.cpu.dcache.ReadReq_mshr_hits::total           10                       # number of ReadReq MSHR hits
system.cpu.dcache.ReadReq_mshr_misses::.switch_cpus.data            4                       # number of ReadReq MSHR misses
system.cpu.dcache.ReadReq_mshr_misses::total            4                       # number of ReadReq MSHR misses
system.cpu.dcache.ReadReq_mshr_miss_latency::.switch_cpus.data       288000                       # number of ReadReq MSHR miss cycles
system.cpu.dcache.ReadReq_mshr_miss_latency::total       288000                       # number of ReadReq MSHR miss cycles
system.cpu.dcache.ReadReq_mshr_miss_rate::.switch_cpus.data     0.000001                       # mshr miss rate for ReadReq accesses
system.cpu.dcache.ReadReq_mshr_miss_rate::total     0.000001                       # mshr miss rate for ReadReq accesses
system.cpu.dcache.ReadReq_avg_mshr_miss_latency::.switch_cpus.data        72000                       # average ReadReq mshr miss latency
system.cpu.dcache.ReadReq_avg_mshr_miss_latency::total        72000                       # average ReadReq mshr miss latency
system.cpu.dcache.WriteReq_hits::.cpu.data            2                       # number of WriteReq hits
system.cpu.dcache.WriteReq_hits::.switch_cpus.data      1682617                       # number of WriteReq hits
system.cpu.dcache.WriteReq_hits::total        1682619                       # number of WriteReq hits
system.cpu.dcache.WriteReq_misses::.switch_cpus.data            1                       # number of WriteReq misses
system.cpu.dcache.WriteReq_misses::total            1                       # number of WriteReq misses
system.cpu.dcache.WriteReq_miss_latency::.switch_cpus.data        86500                       # number of WriteReq miss cycles
system.cpu.dcache.WriteReq_miss_latency::total        86500                       # number of WriteReq miss cycles
system.cpu.dcache.WriteReq_accesses::.cpu.data            2                       # number of WriteReq accesses(hits+misses)
system.cpu.dcache.WriteReq_accesses::.switch_cpus.data      1682618                       # number of WriteReq accesses(hits+misses)
system.cpu.dcache.WriteReq_accesses::total      1682620                       # number of WriteReq accesses(hits+misses)
system.cpu.dcache.WriteReq_miss_rate::.switch_cpus.data     0.000001                       # miss rate for WriteReq accesses
system.cpu.dcache.WriteReq_miss_rate::total     0.000001                       # miss rate for WriteReq accesses
system.cpu.dcache.WriteReq_avg_miss_latency::.switch_cpus.data        86500                       # average WriteReq miss latency
system.cpu.dcache.WriteReq_avg_miss_latency::total        86500                       # average WriteReq miss latency
system.cpu.dcache.WriteReq_mshr_misses::.switch_cpus.data            1                       # number of WriteReq MSHR misses
system.cpu.dcache.WriteReq_mshr_misses::total            1                       # number of WriteReq MSHR misses
system.cpu.dcache.WriteReq_mshr_miss_latency::.switch_cpus.data        85500                       # number of WriteReq MSHR miss cycles
system.cpu.dcache.WriteReq_mshr_miss_latency::total        85500                       # number of WriteReq MSHR miss cycles
system.cpu.dcache.WriteReq_mshr_miss_rate::.switch_cpus.data     0.000001                       # mshr miss rate for WriteReq accesses
system.cpu.dcache.WriteReq_mshr_miss_rate::total     0.000001                       # mshr miss rate for WriteReq accesses
system.cpu.dcache.WriteReq_avg_mshr_miss_latency::.switch_cpus.data        85500                       # average WriteReq mshr miss latency
system.cpu.dcache.WriteReq_avg_mshr_miss_latency::total        85500                       # average WriteReq mshr miss latency
system.cpu.dcache.tags.pwrStateResidencyTicks::UNDEFINED  64630247500                       # Cumulative time (in ticks) in various power states
system.cpu.dcache.tags.tagsinuse             0.673249                       # Cycle average of tags in use
system.cpu.dcache.tags.total_refs             4950969                       # Total number of references to valid blocks.
system.cpu.dcache.tags.sampled_refs                 6                       # Sample count of references to valid blocks.
system.cpu.dcache.tags.avg_refs          825161.500000                       # Average number of references to valid blocks.
system.cpu.dcache.tags.warmup_cycle       57377609000                       # Cycle when the warmup percentage was hit.
system.cpu.dcache.tags.occ_blocks::.cpu.data     0.112217                       # Average occupied blocks per requestor
system.cpu.dcache.tags.occ_blocks::.switch_cpus.data     0.561032                       # Average occupied blocks per requestor
system.cpu.dcache.tags.occ_percent::.cpu.data     0.000055                       # Average percentage of cache occupancy
system.cpu.dcache.tags.occ_percent::.switch_cpus.data     0.000274                       # Average percentage of cache occupancy
system.cpu.dcache.tags.occ_percent::total     0.000329                       # Average percentage of cache occupancy
system.cpu.dcache.tags.occ_task_id_blocks::1024            6                       # Occupied blocks per task id
system.cpu.dcache.tags.age_task_id_blocks_1024::3            6                       # Occupied blocks per task id
system.cpu.dcache.tags.occ_task_id_percent::1024     0.002930                       # Percentage of cache occupancy per task id
system.cpu.dcache.tags.tag_accesses           9901964                       # Number of tag accesses
system.cpu.dcache.tags.data_accesses          9901964                       # Number of data accesses

---------- End Simulation Statistics   ----------
