
---------- Begin Simulation Statistics ----------
final_tick                               100514042500                       # Number of ticks from beginning of simulation (restored from checkpoints and never reset)
host_inst_rate                                 117589                       # Simulator instruction rate (inst/s)
host_mem_usage                                 689068                       # Number of bytes of host memory used
host_op_rate                                   199825                       # Simulator op (including micro ops) rate (op/s)
host_seconds                                     0.85                       # Real time elapsed on the host
host_tick_rate                               83084727                       # Simulator tick rate (ticks/s)
sim_freq                                 1000000000000                       # Frequency of simulated ticks
sim_insts                                      100012                       # Number of instructions simulated
sim_ops                                        169971                       # Number of ops (including micro ops) simulated
sim_seconds                                  0.000071                       # Number of seconds simulated
sim_ticks                                    70673000                       # Number of ticks simulated
system.cpu.committedInsts                          12                       # Number of instructions committed
system.cpu.committedOps                            18                       # Number of ops (including micro ops) committed
system.cpu.dtb.rdAccesses                           6                       # TLB accesses on read requests
system.cpu.dtb.rdMisses                             0                       # TLB misses on read requests
system.cpu.dtb.wrAccesses                           3                       # TLB accesses on write requests
system.cpu.dtb.wrMisses                             0                       # TLB misses on write requests
system.cpu.idle_fraction                            0                       # Percentage of idle cycles
system.cpu.itb.rdAccesses                           0                       # TLB accesses on read requests
system.cpu.itb.rdMisses                             0                       # TLB misses on read requests
system.cpu.itb.wrAccesses                          15                       # TLB accesses on write requests
system.cpu.itb.wrMisses                             0                       # TLB misses on write requests
system.cpu.not_idle_fraction                        1                       # Percentage of non-idle cycles
system.cpu.numCycles                               21                       # number of cpu cycles simulated
system.cpu.numWorkItemsCompleted                    0                       # number of work items this cpu completed
system.cpu.numWorkItemsStarted                      0                       # number of work items this cpu started
system.cpu.num_busy_cycles                         21                       # Number of busy cycles
system.cpu.num_cc_register_reads                    4                       # number of times the CC registers were read
system.cpu.num_cc_register_writes                  10                       # number of times the CC registers were written
system.cpu.num_conditional_control_insts            0                       # number of instructions that are conditional controls
system.cpu.num_fp_alu_accesses                      0                       # Number of float alu accesses
system.cpu.num_fp_insts                             0                       # number of float instructions
system.cpu.num_fp_register_reads                    0                       # number of times the floating registers were read
system.cpu.num_fp_register_writes                   0                       # number of times the floating registers were written
system.cpu.num_func_calls                           0                       # number of times a function call or return occured
system.cpu.num_idle_cycles                          0                       # Number of idle cycles
system.cpu.num_int_alu_accesses                    18                       # Number of integer alu accesses
system.cpu.num_int_insts                           18                       # number of integer instructions
system.cpu.num_int_register_reads                  50                       # number of times the integer registers were read
system.cpu.num_int_register_writes                 15                       # number of times the integer registers were written
system.cpu.num_load_insts                           6                       # Number of load instructions
system.cpu.num_mem_refs                             9                       # number of memory refs
system.cpu.num_store_insts                          3                       # Number of store instructions
system.cpu.num_vec_alu_accesses                     0                       # Number of vector alu accesses
system.cpu.num_vec_insts                            0                       # number of vector instructions
system.cpu.num_vec_register_reads                   0                       # number of times the vector registers were read
system.cpu.num_vec_register_writes                  0                       # number of times the vector registers were written
system.cpu.op_class::No_OpClass                     0      0.00%      0.00% # Class of executed instruction
system.cpu.op_class::IntAlu                         9     50.00%     50.00% # Class of executed instruction
system.cpu.op_class::IntMult                        0      0.00%     50.00% # Class of executed instruction
system.cpu.op_class::IntDiv                         0      0.00%     50.00% # Class of executed instruction
system.cpu.op_class::FloatAdd                       0      0.00%     50.00% # Class of executed instruction
system.cpu.op_class::FloatCmp                       0      0.00%     50.00% # Class of executed instruction
system.cpu.op_class::FloatCvt                       0      0.00%     50.00% # Class of executed instruction
system.cpu.op_class::FloatMult                      0      0.00%     50.00% # Class of executed instruction
system.cpu.op_class::FloatMultAcc                   0      0.00%     50.00% # Class of executed instruction
system.cpu.op_class::FloatDiv                       0      0.00%     50.00% # Class of executed instruction
system.cpu.op_class::FloatMisc                      0      0.00%     50.00% # Class of executed instruction
system.cpu.op_class::FloatSqrt                      0      0.00%     50.00% # Class of executed instruction
system.cpu.op_class::SimdAdd                        0      0.00%     50.00% # Class of executed instruction
system.cpu.op_class::SimdAddAcc                     0      0.00%     50.00% # Class of executed instruction
system.cpu.op_class::SimdAlu                        0      0.00%     50.00% # Class of executed instruction
system.cpu.op_class::SimdCmp                        0      0.00%     50.00% # Class of executed instruction
system.cpu.op_class::SimdCvt                        0      0.00%     50.00% # Class of executed instruction
system.cpu.op_class::SimdMisc                       0      0.00%     50.00% # Class of executed instruction
system.cpu.op_class::SimdMult                       0      0.00%     50.00% # Class of executed instruction
system.cpu.op_class::SimdMultAcc                    0      0.00%     50.00% # Class of executed instruction
system.cpu.op_class::SimdShift                      0      0.00%     50.00% # Class of executed instruction
system.cpu.op_class::SimdShiftAcc                   0      0.00%     50.00% # Class of executed instruction
system.cpu.op_class::SimdDiv                        0      0.00%     50.00% # Class of executed instruction
system.cpu.op_class::SimdSqrt                       0      0.00%     50.00% # Class of executed instruction
system.cpu.op_class::SimdFloatAdd                   0      0.00%     50.00% # Class of executed instruction
system.cpu.op_class::SimdFloatAlu                   0      0.00%     50.00% # Class of executed instruction
system.cpu.op_class::SimdFloatCmp                   0      0.00%     50.00% # Class of executed instruction
system.cpu.op_class::SimdFloatCvt                   0      0.00%     50.00% # Class of executed instruction
system.cpu.op_class::SimdFloatDiv                   0      0.00%     50.00% # Class of executed instruction
system.cpu.op_class::SimdFloatMisc                  0      0.00%     50.00% # Class of executed instruction
system.cpu.op_class::SimdFloatMult                  0      0.00%     50.00% # Class of executed instruction
system.cpu.op_class::SimdFloatMultAcc               0      0.00%     50.00% # Class of executed instruction
system.cpu.op_class::SimdFloatSqrt                  0      0.00%     50.00% # Class of executed instruction
system.cpu.op_class::SimdReduceAdd                  0      0.00%     50.00% # Class of executed instruction
system.cpu.op_class::SimdReduceAlu                  0      0.00%     50.00% # Class of executed instruction
system.cpu.op_class::SimdReduceCmp                  0      0.00%     50.00% # Class of executed instruction
system.cpu.op_class::SimdFloatReduceAdd             0      0.00%     50.00% # Class of executed instruction
system.cpu.op_class::SimdFloatReduceCmp             0      0.00%     50.00% # Class of executed instruction
system.cpu.op_class::SimdAes                        0      0.00%     50.00% # Class of executed instruction
system.cpu.op_class::SimdAesMix                     0      0.00%     50.00% # Class of executed instruction
system.cpu.op_class::SimdSha1Hash                   0      0.00%     50.00% # Class of executed instruction
system.cpu.op_class::SimdSha1Hash2                  0      0.00%     50.00% # Class of executed instruction
system.cpu.op_class::SimdSha256Hash                 0      0.00%     50.00% # Class of executed instruction
system.cpu.op_class::SimdSha256Hash2                0      0.00%     50.00% # Class of executed instruction
system.cpu.op_class::SimdShaSigma2                  0      0.00%     50.00% # Class of executed instruction
system.cpu.op_class::SimdShaSigma3                  0      0.00%     50.00% # Class of executed instruction
system.cpu.op_class::SimdPredAlu                    0      0.00%     50.00% # Class of executed instruction
system.cpu.op_class::MemRead                        6     33.33%     83.33% # Class of executed instruction
system.cpu.op_class::MemWrite                       3     16.67%    100.00% # Class of executed instruction
system.cpu.op_class::FloatMemRead                   0      0.00%    100.00% # Class of executed instruction
system.cpu.op_class::FloatMemWrite                  0      0.00%    100.00% # Class of executed instruction
system.cpu.op_class::IprAccess                      0      0.00%    100.00% # Class of executed instruction
system.cpu.op_class::InstPrefetch                   0      0.00%    100.00% # Class of executed instruction
system.cpu.op_class::total                         18                       # Class of executed instruction
system.cpu.workload.numSyscalls                     0                       # Number of system calls
system.membus.snoop_filter.hit_multi_requests            0                       # Number of requests hitting in the snoop filter with multiple (>1) holders of the requested data.
system.membus.snoop_filter.hit_multi_snoops            0                       # Number of snoops hitting in the snoop filter with multiple (>1) holders of the requested data.
system.membus.snoop_filter.hit_single_requests            0                       # Number of requests hitting in the snoop filter with a single holder of the requested data.
system.membus.snoop_filter.hit_single_snoops            0                       # Number of snoops hitting in the snoop filter with a single holder of the requested data.
system.membus.snoop_filter.tot_requests            44                       # Total number of requests made to the snoop filter.
system.membus.snoop_filter.tot_snoops               0                       # Total number of snoops made to the snoop filter.
system.switch_cpus.branchPred.BTBCorrect            0                       # Number of correct BTB predictions (this stat may not work properly.
system.switch_cpus.branchPred.BTBHitPct      0.000000                       # BTB Hit Percentage
system.switch_cpus.branchPred.BTBHits               0                       # Number of BTB hits
system.switch_cpus.branchPred.BTBLookups        13803                       # Number of BTB lookups
system.switch_cpus.branchPred.RASInCorrect           39                       # Number of incorrect RAS predictions.
system.switch_cpus.branchPred.condIncorrect         1359                       # Number of conditional branches incorrect
system.switch_cpus.branchPred.condPredicted        15201                       # Number of conditional branches predicted
system.switch_cpus.branchPred.indirectHits         9395                       # Number of indirect target hits.
system.switch_cpus.branchPred.indirectLookups        13803                       # Number of indirect predictor lookups.
system.switch_cpus.branchPred.indirectMisses         4408                       # Number of indirect misses.
system.switch_cpus.branchPred.lookups           17355                       # Number of BP lookups
system.switch_cpus.branchPred.usedRAS            1135                       # Number of times the RAS was used to get a target.
system.switch_cpus.branchPredindirectMispredicted          674                       # Number of mispredicted indirect branches.
system.switch_cpus.cc_regfile_reads             72140                       # number of cc regfile reads
system.switch_cpus.cc_regfile_writes            88555                       # number of cc regfile writes
system.switch_cpus.commit.amos                      0                       # Number of atomic instructions committed
system.switch_cpus.commit.branchMispredicts         1359                       # The number of times a branch was mispredicted
system.switch_cpus.commit.branches               7675                       # Number of branches committed
system.switch_cpus.commit.bw_lim_events          2302                       # number cycles where commit BW limit reached
system.switch_cpus.commit.commitSquashedInsts        82785                       # The number of squashed insts skipped by commit
system.switch_cpus.commit.committedInsts       100000                       # Number of instructions committed
system.switch_cpus.commit.committedOps         169953                       # Number of ops (including micro ops) committed
system.switch_cpus.commit.committed_per_cycle::samples       128642                       # Number of insts commited each cycle
system.switch_cpus.commit.committed_per_cycle::mean     1.321132                       # Number of insts commited each cycle
system.switch_cpus.commit.committed_per_cycle::stdev     1.529250                       # Number of insts commited each cycle
system.switch_cpus.commit.committed_per_cycle::underflows            0      0.00%      0.00% # Number of insts commited each cycle
system.switch_cpus.commit.committed_per_cycle::0        40064     31.14%     31.14% # Number of insts commited each cycle
system.switch_cpus.commit.committed_per_cycle::1        51971     40.40%     71.54% # Number of insts commited each cycle
system.switch_cpus.commit.committed_per_cycle::2        15210     11.82%     83.37% # Number of insts commited each cycle
system.switch_cpus.commit.committed_per_cycle::3        11012      8.56%     91.93% # Number of insts commited each cycle
system.switch_cpus.commit.committed_per_cycle::4         5509      4.28%     96.21% # Number of insts commited each cycle
system.switch_cpus.commit.committed_per_cycle::5         1563      1.21%     97.42% # Number of insts commited each cycle
system.switch_cpus.commit.committed_per_cycle::6          818      0.64%     98.06% # Number of insts commited each cycle
system.switch_cpus.commit.committed_per_cycle::7          193      0.15%     98.21% # Number of insts commited each cycle
system.switch_cpus.commit.committed_per_cycle::8         2302      1.79%    100.00% # Number of insts commited each cycle
system.switch_cpus.commit.committed_per_cycle::overflows            0      0.00%    100.00% # Number of insts commited each cycle
system.switch_cpus.commit.committed_per_cycle::min_value            0                       # Number of insts commited each cycle
system.switch_cpus.commit.committed_per_cycle::max_value            8                       # Number of insts commited each cycle
system.switch_cpus.commit.committed_per_cycle::total       128642                       # Number of insts commited each cycle
system.switch_cpus.commit.fp_insts                  0                       # Number of committed floating point instructions.
system.switch_cpus.commit.function_calls          271                       # Number of function calls committed.
system.switch_cpus.commit.int_insts            169950                       # Number of committed integer instructions.
system.switch_cpus.commit.loads                 50623                       # Number of loads committed
system.switch_cpus.commit.membars                   0                       # Number of memory barriers committed
system.switch_cpus.commit.op_class_0::No_OpClass            0      0.00%      0.00% # Class of committed instruction
system.switch_cpus.commit.op_class_0::IntAlu        95196     56.01%     56.01% # Class of committed instruction
system.switch_cpus.commit.op_class_0::IntMult            0      0.00%     56.01% # Class of committed instruction
system.switch_cpus.commit.op_class_0::IntDiv            0      0.00%     56.01% # Class of committed instruction
system.switch_cpus.commit.op_class_0::FloatAdd            0      0.00%     56.01% # Class of committed instruction
system.switch_cpus.commit.op_class_0::FloatCmp            0      0.00%     56.01% # Class of committed instruction
system.switch_cpus.commit.op_class_0::FloatCvt            0      0.00%     56.01% # Class of committed instruction
system.switch_cpus.commit.op_class_0::FloatMult            0      0.00%     56.01% # Class of committed instruction
system.switch_cpus.commit.op_class_0::FloatMultAcc            0      0.00%     56.01% # Class of committed instruction
system.switch_cpus.commit.op_class_0::FloatDiv            0      0.00%     56.01% # Class of committed instruction
system.switch_cpus.commit.op_class_0::FloatMisc            0      0.00%     56.01% # Class of committed instruction
system.switch_cpus.commit.op_class_0::FloatSqrt            0      0.00%     56.01% # Class of committed instruction
system.switch_cpus.commit.op_class_0::SimdAdd            0      0.00%     56.01% # Class of committed instruction
system.switch_cpus.commit.op_class_0::SimdAddAcc            0      0.00%     56.01% # Class of committed instruction
system.switch_cpus.commit.op_class_0::SimdAlu            0      0.00%     56.01% # Class of committed instruction
system.switch_cpus.commit.op_class_0::SimdCmp            0      0.00%     56.01% # Class of committed instruction
system.switch_cpus.commit.op_class_0::SimdCvt            0      0.00%     56.01% # Class of committed instruction
system.switch_cpus.commit.op_class_0::SimdMisc            0      0.00%     56.01% # Class of committed instruction
system.switch_cpus.commit.op_class_0::SimdMult            0      0.00%     56.01% # Class of committed instruction
system.switch_cpus.commit.op_class_0::SimdMultAcc            0      0.00%     56.01% # Class of committed instruction
system.switch_cpus.commit.op_class_0::SimdShift            0      0.00%     56.01% # Class of committed instruction
system.switch_cpus.commit.op_class_0::SimdShiftAcc            0      0.00%     56.01% # Class of committed instruction
system.switch_cpus.commit.op_class_0::SimdDiv            0      0.00%     56.01% # Class of committed instruction
system.switch_cpus.commit.op_class_0::SimdSqrt            0      0.00%     56.01% # Class of committed instruction
system.switch_cpus.commit.op_class_0::SimdFloatAdd            0      0.00%     56.01% # Class of committed instruction
system.switch_cpus.commit.op_class_0::SimdFloatAlu            0      0.00%     56.01% # Class of committed instruction
system.switch_cpus.commit.op_class_0::SimdFloatCmp            0      0.00%     56.01% # Class of committed instruction
system.switch_cpus.commit.op_class_0::SimdFloatCvt            0      0.00%     56.01% # Class of committed instruction
system.switch_cpus.commit.op_class_0::SimdFloatDiv            0      0.00%     56.01% # Class of committed instruction
system.switch_cpus.commit.op_class_0::SimdFloatMisc            0      0.00%     56.01% # Class of committed instruction
system.switch_cpus.commit.op_class_0::SimdFloatMult            0      0.00%     56.01% # Class of committed instruction
system.switch_cpus.commit.op_class_0::SimdFloatMultAcc            0      0.00%     56.01% # Class of committed instruction
system.switch_cpus.commit.op_class_0::SimdFloatSqrt            0      0.00%     56.01% # Class of committed instruction
system.switch_cpus.commit.op_class_0::SimdReduceAdd            0      0.00%     56.01% # Class of committed instruction
system.switch_cpus.commit.op_class_0::SimdReduceAlu            0      0.00%     56.01% # Class of committed instruction
system.switch_cpus.commit.op_class_0::SimdReduceCmp            0      0.00%     56.01% # Class of committed instruction
system.switch_cpus.commit.op_class_0::SimdFloatReduceAdd            0      0.00%     56.01% # Class of committed instruction
system.switch_cpus.commit.op_class_0::SimdFloatReduceCmp            0      0.00%     56.01% # Class of committed instruction
system.switch_cpus.commit.op_class_0::SimdAes            0      0.00%     56.01% # Class of committed instruction
system.switch_cpus.commit.op_class_0::SimdAesMix            0      0.00%     56.01% # Class of committed instruction
system.switch_cpus.commit.op_class_0::SimdSha1Hash            0      0.00%     56.01% # Class of committed instruction
system.switch_cpus.commit.op_class_0::SimdSha1Hash2            0      0.00%     56.01% # Class of committed instruction
system.switch_cpus.commit.op_class_0::SimdSha256Hash            0      0.00%     56.01% # Class of committed instruction
system.switch_cpus.commit.op_class_0::SimdSha256Hash2            0      0.00%     56.01% # Class of committed instruction
system.switch_cpus.commit.op_class_0::SimdShaSigma2            0      0.00%     56.01% # Class of committed instruction
system.switch_cpus.commit.op_class_0::SimdShaSigma3            0      0.00%     56.01% # Class of committed instruction
system.switch_cpus.commit.op_class_0::SimdPredAlu            0      0.00%     56.01% # Class of committed instruction
system.switch_cpus.commit.op_class_0::MemRead        50623     29.79%     85.80% # Class of committed instruction
system.switch_cpus.commit.op_class_0::MemWrite        24134     14.20%    100.00% # Class of committed instruction
system.switch_cpus.commit.op_class_0::FloatMemRead            0      0.00%    100.00% # Class of committed instruction
system.switch_cpus.commit.op_class_0::FloatMemWrite            0      0.00%    100.00% # Class of committed instruction
system.switch_cpus.commit.op_class_0::IprAccess            0      0.00%    100.00% # Class of committed instruction
system.switch_cpus.commit.op_class_0::InstPrefetch            0      0.00%    100.00% # Class of committed instruction
system.switch_cpus.commit.op_class_0::total       169953                       # Class of committed instruction
system.switch_cpus.commit.refs                  74757                       # Number of memory references committed
system.switch_cpus.commit.swp_count                 0                       # Number of s/w prefetches committed
system.switch_cpus.commit.vec_insts                 0                       # Number of committed Vector instructions.
system.switch_cpus.committedInsts              100000                       # Number of Instructions Simulated
system.switch_cpus.committedOps                169953                       # Number of Ops (including micro ops) Simulated
system.switch_cpus.cpi                       1.413250                       # CPI: Cycles Per Instruction
system.switch_cpus.cpi_total                 1.413250                       # CPI: Total CPI of All Threads
system.switch_cpus.decode.BlockedCycles         88721                       # Number of cycles decode is blocked
system.switch_cpus.decode.DecodedInsts         271639                       # Number of instructions handled by decode
system.switch_cpus.decode.IdleCycles            14006                       # Number of cycles decode is idle
system.switch_cpus.decode.RunCycles             17403                       # Number of cycles decode is running
system.switch_cpus.decode.SquashCycles           1600                       # Number of cycles decode is squashing
system.switch_cpus.decode.UnblockCycles         18961                       # Number of cycles decode is unblocking
system.switch_cpus.dtb.rdAccesses               58467                       # TLB accesses on read requests
system.switch_cpus.dtb.rdMisses                     7                       # TLB misses on read requests
system.switch_cpus.dtb.wrAccesses               26922                       # TLB accesses on write requests
system.switch_cpus.dtb.wrMisses                     0                       # TLB misses on write requests
system.switch_cpus.fetch.Branches               17355                       # Number of branches that fetch encountered
system.switch_cpus.fetch.CacheLines             20363                       # Number of cache lines fetched
system.switch_cpus.fetch.Cycles                117322                       # Number of cycles fetch has run and was not squashing or blocked
system.switch_cpus.fetch.IcacheSquashes           387                       # Number of outstanding Icache misses that were squashed
system.switch_cpus.fetch.Insts                 166027                       # Number of instructions fetch has processed
system.switch_cpus.fetch.SquashCycles            3200                       # Number of cycles fetch has spent squashing
system.switch_cpus.fetch.branchRate          0.122802                       # Number of branch fetches per cycle
system.switch_cpus.fetch.icacheStallCycles        21772                       # Number of cycles fetch is stalled on an Icache miss
system.switch_cpus.fetch.predictedBranches        10530                       # Number of branches that fetch has predicted taken
system.switch_cpus.fetch.rate                1.174789                       # Number of inst fetches per cycle
system.switch_cpus.fetch.rateDist::samples       140694                       # Number of instructions fetched each cycle (Total)
system.switch_cpus.fetch.rateDist::mean      2.086457                       # Number of instructions fetched each cycle (Total)
system.switch_cpus.fetch.rateDist::stdev     3.206681                       # Number of instructions fetched each cycle (Total)
system.switch_cpus.fetch.rateDist::underflows            0      0.00%      0.00% # Number of instructions fetched each cycle (Total)
system.switch_cpus.fetch.rateDist::0            92533     65.77%     65.77% # Number of instructions fetched each cycle (Total)
system.switch_cpus.fetch.rateDist::1             2751      1.96%     67.72% # Number of instructions fetched each cycle (Total)
system.switch_cpus.fetch.rateDist::2             2603      1.85%     69.57% # Number of instructions fetched each cycle (Total)
system.switch_cpus.fetch.rateDist::3             3419      2.43%     72.00% # Number of instructions fetched each cycle (Total)
system.switch_cpus.fetch.rateDist::4             5833      4.15%     76.15% # Number of instructions fetched each cycle (Total)
system.switch_cpus.fetch.rateDist::5             2592      1.84%     77.99% # Number of instructions fetched each cycle (Total)
system.switch_cpus.fetch.rateDist::6             2689      1.91%     79.90% # Number of instructions fetched each cycle (Total)
system.switch_cpus.fetch.rateDist::7             3280      2.33%     82.24% # Number of instructions fetched each cycle (Total)
system.switch_cpus.fetch.rateDist::8            24994     17.76%    100.00% # Number of instructions fetched each cycle (Total)
system.switch_cpus.fetch.rateDist::overflows            0      0.00%    100.00% # Number of instructions fetched each cycle (Total)
system.switch_cpus.fetch.rateDist::min_value            0                       # Number of instructions fetched each cycle (Total)
system.switch_cpus.fetch.rateDist::max_value            8                       # Number of instructions fetched each cycle (Total)
system.switch_cpus.fetch.rateDist::total       140694                       # Number of instructions fetched each cycle (Total)
system.switch_cpus.fp_regfile_writes               56                       # number of floating regfile writes
system.switch_cpus.idleCycles                     631                       # Total number of cycles that the CPU has spent unscheduled due to idling
system.switch_cpus.iew.branchMispredicts         1672                       # Number of branch mispredicts detected at execute
system.switch_cpus.iew.exec_branches            10013                       # Number of branches executed
system.switch_cpus.iew.exec_nop                     0                       # number of nop insts executed
system.switch_cpus.iew.exec_rate             1.465226                       # Inst execution rate
system.switch_cpus.iew.exec_refs                85389                       # number of memory reference insts executed
system.switch_cpus.iew.exec_stores              26922                       # Number of stores executed
system.switch_cpus.iew.exec_swp                     0                       # number of swp insts executed
system.switch_cpus.iew.iewBlockCycles           10862                       # Number of cycles IEW is blocking
system.switch_cpus.iew.iewDispLoadInsts         72316                       # Number of dispatched load instructions
system.switch_cpus.iew.iewDispNonSpecInsts            0                       # Number of dispatched non-speculative instructions
system.switch_cpus.iew.iewDispSquashedInsts           25                       # Number of squashed instructions skipped by dispatch
system.switch_cpus.iew.iewDispStoreInsts        34576                       # Number of dispatched store instructions
system.switch_cpus.iew.iewDispatchedInsts       252835                       # Number of instructions dispatched to IQ
system.switch_cpus.iew.iewExecLoadInsts         58467                       # Number of load instructions executed
system.switch_cpus.iew.iewExecSquashedInsts         3178                       # Number of squashed instructions skipped in execute
system.switch_cpus.iew.iewExecutedInsts        207073                       # Number of executed instructions
system.switch_cpus.iew.iewIQFullEvents             11                       # Number of times the IQ has become full, causing a stall
system.switch_cpus.iew.iewIdleCycles                0                       # Number of cycles IEW is idle
system.switch_cpus.iew.iewLSQFullEvents             1                       # Number of times the LSQ has become full, causing a stall
system.switch_cpus.iew.iewSquashCycles           1600                       # Number of cycles IEW is squashing
system.switch_cpus.iew.iewUnblockCycles             9                       # Number of cycles IEW is unblocking
system.switch_cpus.iew.lsq.thread0.blockedLoads            0                       # Number of blocked loads due to partial load-store forwarding
system.switch_cpus.iew.lsq.thread0.cacheBlocked            1                       # Number of times an access to memory failed due to the cache being blocked
system.switch_cpus.iew.lsq.thread0.forwLoads        25243                       # Number of loads that had data forwarded from stores
system.switch_cpus.iew.lsq.thread0.ignoredResponses           15                       # Number of memory responses ignored because the instruction is squashed
system.switch_cpus.iew.lsq.thread0.invAddrLoads            0                       # Number of loads ignored due to an invalid address
system.switch_cpus.iew.lsq.thread0.invAddrSwpfs            0                       # Number of software prefetches ignored due to an invalid address
system.switch_cpus.iew.lsq.thread0.memOrderViolation          283                       # Number of memory ordering violations
system.switch_cpus.iew.lsq.thread0.rescheduledLoads            0                       # Number of loads that were rescheduled
system.switch_cpus.iew.lsq.thread0.squashedLoads        21667                       # Number of loads squashed
system.switch_cpus.iew.lsq.thread0.squashedStores        10428                       # Number of stores squashed
system.switch_cpus.iew.memOrderViolationEvents          283                       # Number of memory order violations
system.switch_cpus.iew.predictedNotTakenIncorrect         1366                       # Number of branches that were predicted not taken incorrectly
system.switch_cpus.iew.predictedTakenIncorrect          306                       # Number of branches that were predicted taken incorrectly
system.switch_cpus.iew.wb_consumers            252767                       # num instructions consuming a value
system.switch_cpus.iew.wb_count                205278                       # cumulative count of insts written-back
system.switch_cpus.iew.wb_fanout             0.628535                       # average fanout of values written-back
system.switch_cpus.iew.wb_producers            158873                       # num instructions producing a value
system.switch_cpus.iew.wb_rate               1.452524                       # insts written-back per cycle
system.switch_cpus.iew.wb_sent                 206313                       # cumulative count of insts sent to commit
system.switch_cpus.int_regfile_reads           365164                       # number of integer regfile reads
system.switch_cpus.int_regfile_writes          169402                       # number of integer regfile writes
system.switch_cpus.ipc                       0.707589                       # IPC: Instructions Per Cycle
system.switch_cpus.ipc_total                 0.707589                       # IPC: Total IPC of All Threads
system.switch_cpus.iq.FU_type_0::No_OpClass            0      0.00%      0.00% # Type of FU issued
system.switch_cpus.iq.FU_type_0::IntAlu        123168     58.58%     58.58% # Type of FU issued
system.switch_cpus.iq.FU_type_0::IntMult            0      0.00%     58.58% # Type of FU issued
system.switch_cpus.iq.FU_type_0::IntDiv             0      0.00%     58.58% # Type of FU issued
system.switch_cpus.iq.FU_type_0::FloatAdd            0      0.00%     58.58% # Type of FU issued
system.switch_cpus.iq.FU_type_0::FloatCmp            0      0.00%     58.58% # Type of FU issued
system.switch_cpus.iq.FU_type_0::FloatCvt            0      0.00%     58.58% # Type of FU issued
system.switch_cpus.iq.FU_type_0::FloatMult            0      0.00%     58.58% # Type of FU issued
system.switch_cpus.iq.FU_type_0::FloatMultAcc            0      0.00%     58.58% # Type of FU issued
system.switch_cpus.iq.FU_type_0::FloatDiv            0      0.00%     58.58% # Type of FU issued
system.switch_cpus.iq.FU_type_0::FloatMisc            0      0.00%     58.58% # Type of FU issued
system.switch_cpus.iq.FU_type_0::FloatSqrt            0      0.00%     58.58% # Type of FU issued
system.switch_cpus.iq.FU_type_0::SimdAdd            0      0.00%     58.58% # Type of FU issued
system.switch_cpus.iq.FU_type_0::SimdAddAcc            0      0.00%     58.58% # Type of FU issued
system.switch_cpus.iq.FU_type_0::SimdAlu            0      0.00%     58.58% # Type of FU issued
system.switch_cpus.iq.FU_type_0::SimdCmp            0      0.00%     58.58% # Type of FU issued
system.switch_cpus.iq.FU_type_0::SimdCvt            0      0.00%     58.58% # Type of FU issued
system.switch_cpus.iq.FU_type_0::SimdMisc            0      0.00%     58.58% # Type of FU issued
system.switch_cpus.iq.FU_type_0::SimdMult            0      0.00%     58.58% # Type of FU issued
system.switch_cpus.iq.FU_type_0::SimdMultAcc            0      0.00%     58.58% # Type of FU issued
system.switch_cpus.iq.FU_type_0::SimdShift            0      0.00%     58.58% # Type of FU issued
system.switch_cpus.iq.FU_type_0::SimdShiftAcc            0      0.00%     58.58% # Type of FU issued
system.switch_cpus.iq.FU_type_0::SimdDiv            0      0.00%     58.58% # Type of FU issued
system.switch_cpus.iq.FU_type_0::SimdSqrt            0      0.00%     58.58% # Type of FU issued
system.switch_cpus.iq.FU_type_0::SimdFloatAdd            0      0.00%     58.58% # Type of FU issued
system.switch_cpus.iq.FU_type_0::SimdFloatAlu            0      0.00%     58.58% # Type of FU issued
system.switch_cpus.iq.FU_type_0::SimdFloatCmp            0      0.00%     58.58% # Type of FU issued
system.switch_cpus.iq.FU_type_0::SimdFloatCvt            0      0.00%     58.58% # Type of FU issued
system.switch_cpus.iq.FU_type_0::SimdFloatDiv            0      0.00%     58.58% # Type of FU issued
system.switch_cpus.iq.FU_type_0::SimdFloatMisc            0      0.00%     58.58% # Type of FU issued
system.switch_cpus.iq.FU_type_0::SimdFloatMult            0      0.00%     58.58% # Type of FU issued
system.switch_cpus.iq.FU_type_0::SimdFloatMultAcc            0      0.00%     58.58% # Type of FU issued
system.switch_cpus.iq.FU_type_0::SimdFloatSqrt            0      0.00%     58.58% # Type of FU issued
system.switch_cpus.iq.FU_type_0::SimdReduceAdd            0      0.00%     58.58% # Type of FU issued
system.switch_cpus.iq.FU_type_0::SimdReduceAlu            0      0.00%     58.58% # Type of FU issued
system.switch_cpus.iq.FU_type_0::SimdReduceCmp            0      0.00%     58.58% # Type of FU issued
system.switch_cpus.iq.FU_type_0::SimdFloatReduceAdd            0      0.00%     58.58% # Type of FU issued
system.switch_cpus.iq.FU_type_0::SimdFloatReduceCmp            0      0.00%     58.58% # Type of FU issued
system.switch_cpus.iq.FU_type_0::SimdAes            0      0.00%     58.58% # Type of FU issued
system.switch_cpus.iq.FU_type_0::SimdAesMix            0      0.00%     58.58% # Type of FU issued
system.switch_cpus.iq.FU_type_0::SimdSha1Hash            0      0.00%     58.58% # Type of FU issued
system.switch_cpus.iq.FU_type_0::SimdSha1Hash2            0      0.00%     58.58% # Type of FU issued
system.switch_cpus.iq.FU_type_0::SimdSha256Hash            0      0.00%     58.58% # Type of FU issued
system.switch_cpus.iq.FU_type_0::SimdSha256Hash2            0      0.00%     58.58% # Type of FU issued
system.switch_cpus.iq.FU_type_0::SimdShaSigma2            0      0.00%     58.58% # Type of FU issued
system.switch_cpus.iq.FU_type_0::SimdShaSigma3            0      0.00%     58.58% # Type of FU issued
system.switch_cpus.iq.FU_type_0::SimdPredAlu            0      0.00%     58.58% # Type of FU issued
system.switch_cpus.iq.FU_type_0::MemRead        59792     28.44%     87.02% # Type of FU issued
system.switch_cpus.iq.FU_type_0::MemWrite        27293     12.98%    100.00% # Type of FU issued
system.switch_cpus.iq.FU_type_0::FloatMemRead            0      0.00%    100.00% # Type of FU issued
system.switch_cpus.iq.FU_type_0::FloatMemWrite            0      0.00%    100.00% # Type of FU issued
system.switch_cpus.iq.FU_type_0::IprAccess            0      0.00%    100.00% # Type of FU issued
system.switch_cpus.iq.FU_type_0::InstPrefetch            0      0.00%    100.00% # Type of FU issued
system.switch_cpus.iq.FU_type_0::total         210253                       # Type of FU issued
system.switch_cpus.iq.fp_alu_accesses               0                       # Number of floating point alu accesses
system.switch_cpus.iq.fp_inst_queue_reads            0                       # Number of floating instruction queue reads
system.switch_cpus.iq.fp_inst_queue_wakeup_accesses            0                       # Number of floating instruction queue wakeup accesses
system.switch_cpus.iq.fp_inst_queue_writes            0                       # Number of floating instruction queue writes
system.switch_cpus.iq.fu_busy_cnt                 721                       # FU busy when requested
system.switch_cpus.iq.fu_busy_rate           0.003429                       # FU busy rate (busy events/executed inst)
system.switch_cpus.iq.fu_full::No_OpClass            0      0.00%      0.00% # attempts to use FU when none available
system.switch_cpus.iq.fu_full::IntAlu             100     13.87%     13.87% # attempts to use FU when none available
system.switch_cpus.iq.fu_full::IntMult              0      0.00%     13.87% # attempts to use FU when none available
system.switch_cpus.iq.fu_full::IntDiv               0      0.00%     13.87% # attempts to use FU when none available
system.switch_cpus.iq.fu_full::FloatAdd             0      0.00%     13.87% # attempts to use FU when none available
system.switch_cpus.iq.fu_full::FloatCmp             0      0.00%     13.87% # attempts to use FU when none available
system.switch_cpus.iq.fu_full::FloatCvt             0      0.00%     13.87% # attempts to use FU when none available
system.switch_cpus.iq.fu_full::FloatMult            0      0.00%     13.87% # attempts to use FU when none available
system.switch_cpus.iq.fu_full::FloatMultAcc            0      0.00%     13.87% # attempts to use FU when none available
system.switch_cpus.iq.fu_full::FloatDiv             0      0.00%     13.87% # attempts to use FU when none available
system.switch_cpus.iq.fu_full::FloatMisc            0      0.00%     13.87% # attempts to use FU when none available
system.switch_cpus.iq.fu_full::FloatSqrt            0      0.00%     13.87% # attempts to use FU when none available
system.switch_cpus.iq.fu_full::SimdAdd              0      0.00%     13.87% # attempts to use FU when none available
system.switch_cpus.iq.fu_full::SimdAddAcc            0      0.00%     13.87% # attempts to use FU when none available
system.switch_cpus.iq.fu_full::SimdAlu              0      0.00%     13.87% # attempts to use FU when none available
system.switch_cpus.iq.fu_full::SimdCmp              0      0.00%     13.87% # attempts to use FU when none available
system.switch_cpus.iq.fu_full::SimdCvt              0      0.00%     13.87% # attempts to use FU when none available
system.switch_cpus.iq.fu_full::SimdMisc             0      0.00%     13.87% # attempts to use FU when none available
system.switch_cpus.iq.fu_full::SimdMult             0      0.00%     13.87% # attempts to use FU when none available
system.switch_cpus.iq.fu_full::SimdMultAcc            0      0.00%     13.87% # attempts to use FU when none available
system.switch_cpus.iq.fu_full::SimdShift            0      0.00%     13.87% # attempts to use FU when none available
system.switch_cpus.iq.fu_full::SimdShiftAcc            0      0.00%     13.87% # attempts to use FU when none available
system.switch_cpus.iq.fu_full::SimdDiv              0      0.00%     13.87% # attempts to use FU when none available
system.switch_cpus.iq.fu_full::SimdSqrt             0      0.00%     13.87% # attempts to use FU when none available
system.switch_cpus.iq.fu_full::SimdFloatAdd            0      0.00%     13.87% # attempts to use FU when none available
system.switch_cpus.iq.fu_full::SimdFloatAlu            0      0.00%     13.87% # attempts to use FU when none available
system.switch_cpus.iq.fu_full::SimdFloatCmp            0      0.00%     13.87% # attempts to use FU when none available
system.switch_cpus.iq.fu_full::SimdFloatCvt            0      0.00%     13.87% # attempts to use FU when none available
system.switch_cpus.iq.fu_full::SimdFloatDiv            0      0.00%     13.87% # attempts to use FU when none available
system.switch_cpus.iq.fu_full::SimdFloatMisc            0      0.00%     13.87% # attempts to use FU when none available
system.switch_cpus.iq.fu_full::SimdFloatMult            0      0.00%     13.87% # attempts to use FU when none available
system.switch_cpus.iq.fu_full::SimdFloatMultAcc            0      0.00%     13.87% # attempts to use FU when none available
system.switch_cpus.iq.fu_full::SimdFloatSqrt            0      0.00%     13.87% # attempts to use FU when none available
system.switch_cpus.iq.fu_full::SimdReduceAdd            0      0.00%     13.87% # attempts to use FU when none available
system.switch_cpus.iq.fu_full::SimdReduceAlu            0      0.00%     13.87% # attempts to use FU when none available
system.switch_cpus.iq.fu_full::SimdReduceCmp            0      0.00%     13.87% # attempts to use FU when none available
system.switch_cpus.iq.fu_full::SimdFloatReduceAdd            0      0.00%     13.87% # attempts to use FU when none available
system.switch_cpus.iq.fu_full::SimdFloatReduceCmp            0      0.00%     13.87% # attempts to use FU when none available
system.switch_cpus.iq.fu_full::SimdAes              0      0.00%     13.87% # attempts to use FU when none available
system.switch_cpus.iq.fu_full::SimdAesMix            0      0.00%     13.87% # attempts to use FU when none available
system.switch_cpus.iq.fu_full::SimdSha1Hash            0      0.00%     13.87% # attempts to use FU when none available
system.switch_cpus.iq.fu_full::SimdSha1Hash2            0      0.00%     13.87% # attempts to use FU when none available
system.switch_cpus.iq.fu_full::SimdSha256Hash            0      0.00%     13.87% # attempts to use FU when none available
system.switch_cpus.iq.fu_full::SimdSha256Hash2            0      0.00%     13.87% # attempts to use FU when none available
system.switch_cpus.iq.fu_full::SimdShaSigma2            0      0.00%     13.87% # attempts to use FU when none available
system.switch_cpus.iq.fu_full::SimdShaSigma3            0      0.00%     13.87% # attempts to use FU when none available
system.switch_cpus.iq.fu_full::SimdPredAlu            0      0.00%     13.87% # attempts to use FU when none available
system.switch_cpus.iq.fu_full::MemRead            462     64.08%     77.95% # attempts to use FU when none available
system.switch_cpus.iq.fu_full::MemWrite           159     22.05%    100.00% # attempts to use FU when none available
system.switch_cpus.iq.fu_full::FloatMemRead            0      0.00%    100.00% # attempts to use FU when none available
system.switch_cpus.iq.fu_full::FloatMemWrite            0      0.00%    100.00% # attempts to use FU when none available
system.switch_cpus.iq.fu_full::IprAccess            0      0.00%    100.00% # attempts to use FU when none available
system.switch_cpus.iq.fu_full::InstPrefetch            0      0.00%    100.00% # attempts to use FU when none available
system.switch_cpus.iq.int_alu_accesses         210974                       # Number of integer alu accesses
system.switch_cpus.iq.int_inst_queue_reads       562053                       # Number of integer instruction queue reads
system.switch_cpus.iq.int_inst_queue_wakeup_accesses       205278                       # Number of integer instruction queue wakeup accesses
system.switch_cpus.iq.int_inst_queue_writes       335889                       # Number of integer instruction queue writes
system.switch_cpus.iq.iqInstsAdded             252835                       # Number of instructions added to the IQ (excludes non-spec)
system.switch_cpus.iq.iqInstsIssued            210253                       # Number of instructions issued
system.switch_cpus.iq.iqSquashedInstsExamined        82777                       # Number of squashed instructions iterated over during squash; mainly for profiling
system.switch_cpus.iq.iqSquashedInstsIssued          134                       # Number of squashed instructions issued
system.switch_cpus.iq.iqSquashedOperandsExamined       160944                       # Number of squashed operands that are examined and possibly removed from graph
system.switch_cpus.iq.issued_per_cycle::samples       140694                       # Number of insts issued each cycle
system.switch_cpus.iq.issued_per_cycle::mean     1.494399                       # Number of insts issued each cycle
system.switch_cpus.iq.issued_per_cycle::stdev     1.443988                       # Number of insts issued each cycle
system.switch_cpus.iq.issued_per_cycle::underflows            0      0.00%      0.00% # Number of insts issued each cycle
system.switch_cpus.iq.issued_per_cycle::0        39607     28.15%     28.15% # Number of insts issued each cycle
system.switch_cpus.iq.issued_per_cycle::1        44094     31.34%     59.49% # Number of insts issued each cycle
system.switch_cpus.iq.issued_per_cycle::2        28343     20.15%     79.64% # Number of insts issued each cycle
system.switch_cpus.iq.issued_per_cycle::3        14099     10.02%     89.66% # Number of insts issued each cycle
system.switch_cpus.iq.issued_per_cycle::4         8983      6.38%     96.04% # Number of insts issued each cycle
system.switch_cpus.iq.issued_per_cycle::5         3302      2.35%     98.39% # Number of insts issued each cycle
system.switch_cpus.iq.issued_per_cycle::6         1406      1.00%     99.39% # Number of insts issued each cycle
system.switch_cpus.iq.issued_per_cycle::7          582      0.41%     99.80% # Number of insts issued each cycle
system.switch_cpus.iq.issued_per_cycle::8          278      0.20%    100.00% # Number of insts issued each cycle
system.switch_cpus.iq.issued_per_cycle::overflows            0      0.00%    100.00% # Number of insts issued each cycle
system.switch_cpus.iq.issued_per_cycle::min_value            0                       # Number of insts issued each cycle
system.switch_cpus.iq.issued_per_cycle::max_value            8                       # Number of insts issued each cycle
system.switch_cpus.iq.issued_per_cycle::total       140694                       # Number of insts issued each cycle
system.switch_cpus.iq.rate                   1.487727                       # Inst issue rate
system.switch_cpus.iq.vec_alu_accesses              0                       # Number of vector alu accesses
system.switch_cpus.iq.vec_inst_queue_reads            0                       # Number of vector instruction queue reads
system.switch_cpus.iq.vec_inst_queue_wakeup_accesses            0                       # Number of vector instruction queue wakeup accesses
system.switch_cpus.iq.vec_inst_queue_writes            0                       # Number of vector instruction queue writes
system.switch_cpus.itb.rdAccesses                   0                       # TLB accesses on read requests
system.switch_cpus.itb.rdMisses                     0                       # TLB misses on read requests
system.switch_cpus.itb.wrAccesses               20363                       # TLB accesses on write requests
system.switch_cpus.itb.wrMisses                     1                       # TLB misses on write requests
system.switch_cpus.memDep0.conflictingLoads        60480                       # Number of conflicting loads.
system.switch_cpus.memDep0.conflictingStores        25173                       # Number of conflicting stores.
system.switch_cpus.memDep0.insertedLoads        72316                       # Number of loads inserted to the mem dependence unit.
system.switch_cpus.memDep0.insertedStores        34576                       # Number of stores inserted to the mem dependence unit.
system.switch_cpus.misc_regfile_reads          110711                       # number of misc regfile reads
system.switch_cpus.misc_regfile_writes              1                       # number of misc regfile writes
system.switch_cpus.numCycles                   141325                       # number of cpu cycles simulated
system.switch_cpus.numWorkItemsCompleted            0                       # number of work items this cpu completed
system.switch_cpus.numWorkItemsStarted              0                       # number of work items this cpu started
system.switch_cpus.rename.BlockCycles           33696                       # Number of cycles rename is blocking
system.switch_cpus.rename.CommittedMaps        222414                       # Number of HB maps that are committed
system.switch_cpus.rename.IQFullEvents          54387                       # Number of times rename has blocked due to IQ full
system.switch_cpus.rename.IdleCycles            20416                       # Number of cycles rename is idle
system.switch_cpus.rename.LQFullEvents            590                       # Number of times rename has blocked due to LQ full
system.switch_cpus.rename.ROBFullEvents             1                       # Number of times rename has blocked due to ROB full
system.switch_cpus.rename.RenameLookups        735115                       # Number of register rename lookups that rename has made
system.switch_cpus.rename.RenamedInsts         264486                       # Number of instructions processed by rename
system.switch_cpus.rename.RenamedOperands       331193                       # Number of destination operands rename has renamed
system.switch_cpus.rename.RunCycles             29241                       # Number of cycles rename is running
system.switch_cpus.rename.SquashCycles           1600                       # Number of cycles rename is squashing
system.switch_cpus.rename.UnblockCycles         55738                       # Number of cycles rename is unblocking
system.switch_cpus.rename.UndoneMaps           108664                       # Number of HB maps that are undone due to squashing
system.switch_cpus.rename.int_rename_lookups       486452                       # Number of integer rename lookups
system.switch_cpus.rename.serializeStallCycles            0                       # count of cycles rename stalled for serializing inst
system.switch_cpus.rename.serializingInsts            0                       # count of serializing insts renamed
system.switch_cpus.rename.skidInsts            103410                       # count of insts added to the skid buffer
system.switch_cpus.rename.tempSerializingInsts            0                       # count of temporary serializing insts renamed
system.switch_cpus.rob.rob_reads               379078                       # The number of ROB reads
system.switch_cpus.rob.rob_writes              517715                       # The number of ROB writes
system.switch_cpus.timesIdled                       9                       # Number of times that the entire CPU went into an idle state and unscheduled itself
system.tol2bus.snoop_filter.hit_multi_requests            0                       # Number of requests hitting in the snoop filter with multiple (>1) holders of the requested data.
system.tol2bus.snoop_filter.hit_multi_snoops            0                       # Number of snoops hitting in the snoop filter with multiple (>1) holders of the requested data.
system.tol2bus.snoop_filter.hit_single_requests            3                       # Number of requests hitting in the snoop filter with a single holder of the requested data.
system.tol2bus.snoop_filter.hit_single_snoops            0                       # Number of snoops hitting in the snoop filter with a single holder of the requested data.
system.tol2bus.snoop_filter.tot_requests           47                       # Total number of requests made to the snoop filter.
system.tol2bus.snoop_filter.tot_snoops              0                       # Total number of snoops made to the snoop filter.
system.membus.pwrStateResidencyTicks::UNDEFINED 100514042500                       # Cumulative time (in ticks) in various power states
system.membus.trans_dist::ReadResp                 43                       # Transaction distribution
system.membus.trans_dist::ReadExReq                 1                       # Transaction distribution
system.membus.trans_dist::ReadExResp                1                       # Transaction distribution
system.membus.trans_dist::ReadSharedReq            43                       # Transaction distribution
system.membus.pkt_count_system.l2.mem_side::system.mem_ctrls.port           88                       # Packet count per connected master and slave (bytes)
system.membus.pkt_count_system.l2.mem_side::total           88                       # Packet count per connected master and slave (bytes)
system.membus.pkt_count::total                     88                       # Packet count per connected master and slave (bytes)
system.membus.pkt_size_system.l2.mem_side::system.mem_ctrls.port         2816                       # Cumulative packet size per connected master and slave (bytes)
system.membus.pkt_size_system.l2.mem_side::total         2816                       # Cumulative packet size per connected master and slave (bytes)
system.membus.pkt_size::total                    2816                       # Cumulative packet size per connected master and slave (bytes)
system.membus.snoops                                0                       # Total snoops (count)
system.membus.snoopTraffic                          0                       # Total snoop traffic (bytes)
system.membus.snoop_fanout::samples                44                       # Request fanout histogram
system.membus.snoop_fanout::mean                    0                       # Request fanout histogram
system.membus.snoop_fanout::stdev                   0                       # Request fanout histogram
system.membus.snoop_fanout::underflows              0      0.00%      0.00% # Request fanout histogram
system.membus.snoop_fanout::0                      44    100.00%    100.00% # Request fanout histogram
system.membus.snoop_fanout::1                       0      0.00%    100.00% # Request fanout histogram
system.membus.snoop_fanout::overflows               0      0.00%    100.00% # Request fanout histogram
system.membus.snoop_fanout::min_value               0                       # Request fanout histogram
system.membus.snoop_fanout::max_value               0                       # Request fanout histogram
system.membus.snoop_fanout::total                  44                       # Request fanout histogram
system.membus.reqLayer2.occupancy               50000                       # Layer occupancy (ticks)
system.membus.reqLayer2.utilization               0.1                       # Layer utilization (%)
system.membus.respLayer1.occupancy             219000                       # Layer occupancy (ticks)
system.membus.respLayer1.utilization              0.3                       # Layer utilization (%)
system.switch_cpus.pwrStateResidencyTicks::OFF     70673000                       # Cumulative time (in ticks) in various power states
system.switch_cpus.dtb.walker.pwrStateResidencyTicks::UNDEFINED 100514042500                       # Cumulative time (in ticks) in various power states
system.switch_cpus.itb.walker.pwrStateResidencyTicks::UNDEFINED 100514042500                       # Cumulative time (in ticks) in various power states
system.tol2bus.pwrStateResidencyTicks::UNDEFINED 100514042500                       # Cumulative time (in ticks) in various power states
system.tol2bus.trans_dist::ReadResp                46                       # Transaction distribution
system.tol2bus.trans_dist::ReadExReq                1                       # Transaction distribution
system.tol2bus.trans_dist::ReadExResp               1                       # Transaction distribution
system.tol2bus.trans_dist::ReadCleanReq            27                       # Transaction distribution
system.tol2bus.trans_dist::ReadSharedReq           19                       # Transaction distribution
system.tol2bus.pkt_count_system.cpu.icache.mem_side::system.l2.cpu_side           54                       # Packet count per connected master and slave (bytes)
system.tol2bus.pkt_count_system.cpu.dcache.mem_side::system.l2.cpu_side           40                       # Packet count per connected master and slave (bytes)
system.tol2bus.pkt_count::total                    94                       # Packet count per connected master and slave (bytes)
system.tol2bus.pkt_size_system.cpu.icache.mem_side::system.l2.cpu_side         1728                       # Cumulative packet size per connected master and slave (bytes)
system.tol2bus.pkt_size_system.cpu.dcache.mem_side::system.l2.cpu_side         1280                       # Cumulative packet size per connected master and slave (bytes)
system.tol2bus.pkt_size::total                   3008                       # Cumulative packet size per connected master and slave (bytes)
system.tol2bus.snoops                               0                       # Total snoops (count)
system.tol2bus.snoopTraffic                         0                       # Total snoop traffic (bytes)
system.tol2bus.snoop_fanout::samples               47                       # Request fanout histogram
system.tol2bus.snoop_fanout::mean            0.063830                       # Request fanout histogram
system.tol2bus.snoop_fanout::stdev           0.247092                       # Request fanout histogram
system.tol2bus.snoop_fanout::underflows             0      0.00%      0.00% # Request fanout histogram
system.tol2bus.snoop_fanout::0                     44     93.62%     93.62% # Request fanout histogram
system.tol2bus.snoop_fanout::1                      3      6.38%    100.00% # Request fanout histogram
system.tol2bus.snoop_fanout::2                      0      0.00%    100.00% # Request fanout histogram
system.tol2bus.snoop_fanout::3                      0      0.00%    100.00% # Request fanout histogram
system.tol2bus.snoop_fanout::4                      0      0.00%    100.00% # Request fanout histogram
system.tol2bus.snoop_fanout::overflows              0      0.00%    100.00% # Request fanout histogram
system.tol2bus.snoop_fanout::min_value              0                       # Request fanout histogram
system.tol2bus.snoop_fanout::max_value              1                       # Request fanout histogram
system.tol2bus.snoop_fanout::total                 47                       # Request fanout histogram
system.tol2bus.reqLayer0.occupancy              22500                       # Layer occupancy (ticks)
system.tol2bus.reqLayer0.utilization              0.0                       # Layer utilization (%)
system.tol2bus.respLayer1.occupancy             28500                       # Layer occupancy (ticks)
system.tol2bus.respLayer1.utilization             0.0                       # Layer utilization (%)
system.tol2bus.respLayer0.occupancy             39000                       # Layer occupancy (ticks)
system.tol2bus.respLayer0.utilization             0.1                       # Layer utilization (%)
system.voltage_domain.voltage                       1                       # Voltage in Volts
system.clk_domain.clock                          1000                       # Clock period in ticks
system.l2.pwrStateResidencyTicks::UNDEFINED 100514042500                       # Cumulative time (in ticks) in various power states
system.l2.demand_hits::.switch_cpus.inst            2                       # number of demand (read+write) hits
system.l2.demand_hits::.switch_cpus.data            1                       # number of demand (read+write) hits
system.l2.demand_hits::total                        3                       # number of demand (read+write) hits
system.l2.overall_hits::.switch_cpus.inst            2                       # number of overall hits
system.l2.overall_hits::.switch_cpus.data            1                       # number of overall hits
system.l2.overall_hits::total                       3                       # number of overall hits
system.l2.demand_misses::.cpu.inst                  1                       # number of demand (read+write) misses
system.l2.demand_misses::.cpu.data                  1                       # number of demand (read+write) misses
system.l2.demand_misses::.switch_cpus.inst           24                       # number of demand (read+write) misses
system.l2.demand_misses::.switch_cpus.data           18                       # number of demand (read+write) misses
system.l2.demand_misses::total                     44                       # number of demand (read+write) misses
system.l2.overall_misses::.cpu.inst                 1                       # number of overall misses
system.l2.overall_misses::.cpu.data                 1                       # number of overall misses
system.l2.overall_misses::.switch_cpus.inst           24                       # number of overall misses
system.l2.overall_misses::.switch_cpus.data           18                       # number of overall misses
system.l2.overall_misses::total                    44                       # number of overall misses
system.l2.demand_miss_latency::.switch_cpus.inst      2273000                       # number of demand (read+write) miss cycles
system.l2.demand_miss_latency::.switch_cpus.data      1529000                       # number of demand (read+write) miss cycles
system.l2.demand_miss_latency::total          3802000                       # number of demand (read+write) miss cycles
system.l2.overall_miss_latency::.switch_cpus.inst      2273000                       # number of overall miss cycles
system.l2.overall_miss_latency::.switch_cpus.data      1529000                       # number of overall miss cycles
system.l2.overall_miss_latency::total         3802000                       # number of overall miss cycles
system.l2.demand_accesses::.cpu.inst                1                       # number of demand (read+write) accesses
system.l2.demand_accesses::.cpu.data                1                       # number of demand (read+write) accesses
system.l2.demand_accesses::.switch_cpus.inst           26                       # number of demand (read+write) accesses
system.l2.demand_accesses::.switch_cpus.data           19                       # number of demand (read+write) accesses
system.l2.demand_accesses::total                   47                       # number of demand (read+write) accesses
system.l2.overall_accesses::.cpu.inst               1                       # number of overall (read+write) accesses
system.l2.overall_accesses::.cpu.data               1                       # number of overall (read+write) accesses
system.l2.overall_accesses::.switch_cpus.inst           26                       # number of overall (read+write) accesses
system.l2.overall_accesses::.switch_cpus.data           19                       # number of overall (read+write) accesses
system.l2.overall_accesses::total                  47                       # number of overall (read+write) accesses
system.l2.demand_miss_rate::.cpu.inst               1                       # miss rate for demand accesses
system.l2.demand_miss_rate::.cpu.data               1                       # miss rate for demand accesses
system.l2.demand_miss_rate::.switch_cpus.inst     0.923077                       # miss rate for demand accesses
system.l2.demand_miss_rate::.switch_cpus.data     0.947368                       # miss rate for demand accesses
system.l2.demand_miss_rate::total            0.936170                       # miss rate for demand accesses
system.l2.overall_miss_rate::.cpu.inst              1                       # miss rate for overall accesses
system.l2.overall_miss_rate::.cpu.data              1                       # miss rate for overall accesses
system.l2.overall_miss_rate::.switch_cpus.inst     0.923077                       # miss rate for overall accesses
system.l2.overall_miss_rate::.switch_cpus.data     0.947368                       # miss rate for overall accesses
system.l2.overall_miss_rate::total           0.936170                       # miss rate for overall accesses
system.l2.demand_avg_miss_latency::.switch_cpus.inst 94708.333333                       # average overall miss latency
system.l2.demand_avg_miss_latency::.switch_cpus.data 84944.444444                       # average overall miss latency
system.l2.demand_avg_miss_latency::total 86409.090909                       # average overall miss latency
system.l2.overall_avg_miss_latency::.switch_cpus.inst 94708.333333                       # average overall miss latency
system.l2.overall_avg_miss_latency::.switch_cpus.data 84944.444444                       # average overall miss latency
system.l2.overall_avg_miss_latency::total 86409.090909                       # average overall miss latency
system.l2.blocked_cycles::no_mshrs                  0                       # number of cycles access was blocked
system.l2.blocked_cycles::no_targets                0                       # number of cycles access was blocked
system.l2.blocked::no_mshrs                         0                       # number of cycles access was blocked
system.l2.blocked::no_targets                       0                       # number of cycles access was blocked
system.l2.avg_blocked_cycles::no_mshrs            nan                       # average number of cycles each access was blocked
system.l2.avg_blocked_cycles::no_targets          nan                       # average number of cycles each access was blocked
system.l2.demand_mshr_misses::.switch_cpus.inst           24                       # number of demand (read+write) MSHR misses
system.l2.demand_mshr_misses::.switch_cpus.data           18                       # number of demand (read+write) MSHR misses
system.l2.demand_mshr_misses::total                42                       # number of demand (read+write) MSHR misses
system.l2.overall_mshr_misses::.switch_cpus.inst           24                       # number of overall MSHR misses
system.l2.overall_mshr_misses::.switch_cpus.data           18                       # number of overall MSHR misses
system.l2.overall_mshr_misses::total               42                       # number of overall MSHR misses
system.l2.demand_mshr_miss_latency::.switch_cpus.inst      2033000                       # number of demand (read+write) MSHR miss cycles
system.l2.demand_mshr_miss_latency::.switch_cpus.data      1349000                       # number of demand (read+write) MSHR miss cycles
system.l2.demand_mshr_miss_latency::total      3382000                       # number of demand (read+write) MSHR miss cycles
system.l2.overall_mshr_miss_latency::.switch_cpus.inst      2033000                       # number of overall MSHR miss cycles
system.l2.overall_mshr_miss_latency::.switch_cpus.data      1349000                       # number of overall MSHR miss cycles
system.l2.overall_mshr_miss_latency::total      3382000                       # number of overall MSHR miss cycles
system.l2.demand_mshr_miss_rate::.switch_cpus.inst     0.923077                       # mshr miss rate for demand accesses
system.l2.demand_mshr_miss_rate::.switch_cpus.data     0.947368                       # mshr miss rate for demand accesses
system.l2.demand_mshr_miss_rate::total       0.893617                       # mshr miss rate for demand accesses
system.l2.overall_mshr_miss_rate::.switch_cpus.inst     0.923077                       # mshr miss rate for overall accesses
system.l2.overall_mshr_miss_rate::.switch_cpus.data     0.947368                       # mshr miss rate for overall accesses
system.l2.overall_mshr_miss_rate::total      0.893617                       # mshr miss rate for overall accesses
system.l2.demand_avg_mshr_miss_latency::.switch_cpus.inst 84708.333333                       # average overall mshr miss latency
system.l2.demand_avg_mshr_miss_latency::.switch_cpus.data 74944.444444                       # average overall mshr miss latency
system.l2.demand_avg_mshr_miss_latency::total 80523.809524                       # average overall mshr miss latency
system.l2.overall_avg_mshr_miss_latency::.switch_cpus.inst 84708.333333                       # average overall mshr miss latency
system.l2.overall_avg_mshr_miss_latency::.switch_cpus.data 74944.444444                       # average overall mshr miss latency
system.l2.overall_avg_mshr_miss_latency::total 80523.809524                       # average overall mshr miss latency
system.l2.replacements                              0                       # number of replacements
system.l2.ReadExReq_misses::.cpu.data               1                       # number of ReadExReq misses
system.l2.ReadExReq_misses::total                   1                       # number of ReadExReq misses
system.l2.ReadExReq_accesses::.cpu.data             1                       # number of ReadExReq accesses(hits+misses)
system.l2.ReadExReq_accesses::total                 1                       # number of ReadExReq accesses(hits+misses)
system.l2.ReadExReq_miss_rate::.cpu.data            1                       # miss rate for ReadExReq accesses
system.l2.ReadExReq_miss_rate::total                1                       # miss rate for ReadExReq accesses
system.l2.ReadCleanReq_hits::.switch_cpus.inst            2                       # number of ReadCleanReq hits
system.l2.ReadCleanReq_hits::total                  2                       # number of ReadCleanReq hits
system.l2.ReadCleanReq_misses::.cpu.inst            1                       # number of ReadCleanReq misses
system.l2.ReadCleanReq_misses::.switch_cpus.inst           24                       # number of ReadCleanReq misses
system.l2.ReadCleanReq_misses::total               25                       # number of ReadCleanReq misses
system.l2.ReadCleanReq_miss_latency::.switch_cpus.inst      2273000                       # number of ReadCleanReq miss cycles
system.l2.ReadCleanReq_miss_latency::total      2273000                       # number of ReadCleanReq miss cycles
system.l2.ReadCleanReq_accesses::.cpu.inst            1                       # number of ReadCleanReq accesses(hits+misses)
system.l2.ReadCleanReq_accesses::.switch_cpus.inst           26                       # number of ReadCleanReq accesses(hits+misses)
system.l2.ReadCleanReq_accesses::total             27                       # number of ReadCleanReq accesses(hits+misses)
system.l2.ReadCleanReq_miss_rate::.cpu.inst            1                       # miss rate for ReadCleanReq accesses
system.l2.ReadCleanReq_miss_rate::.switch_cpus.inst     0.923077                       # miss rate for ReadCleanReq accesses
system.l2.ReadCleanReq_miss_rate::total      0.925926                       # miss rate for ReadCleanReq accesses
system.l2.ReadCleanReq_avg_miss_latency::.switch_cpus.inst 94708.333333                       # average ReadCleanReq miss latency
system.l2.ReadCleanReq_avg_miss_latency::total        90920                       # average ReadCleanReq miss latency
system.l2.ReadCleanReq_mshr_misses::.switch_cpus.inst           24                       # number of ReadCleanReq MSHR misses
system.l2.ReadCleanReq_mshr_misses::total           24                       # number of ReadCleanReq MSHR misses
system.l2.ReadCleanReq_mshr_miss_latency::.switch_cpus.inst      2033000                       # number of ReadCleanReq MSHR miss cycles
system.l2.ReadCleanReq_mshr_miss_latency::total      2033000                       # number of ReadCleanReq MSHR miss cycles
system.l2.ReadCleanReq_mshr_miss_rate::.switch_cpus.inst     0.923077                       # mshr miss rate for ReadCleanReq accesses
system.l2.ReadCleanReq_mshr_miss_rate::total     0.888889                       # mshr miss rate for ReadCleanReq accesses
system.l2.ReadCleanReq_avg_mshr_miss_latency::.switch_cpus.inst 84708.333333                       # average ReadCleanReq mshr miss latency
system.l2.ReadCleanReq_avg_mshr_miss_latency::total 84708.333333                       # average ReadCleanReq mshr miss latency
system.l2.ReadSharedReq_hits::.switch_cpus.data            1                       # number of ReadSharedReq hits
system.l2.ReadSharedReq_hits::total                 1                       # number of ReadSharedReq hits
system.l2.ReadSharedReq_misses::.switch_cpus.data           18                       # number of ReadSharedReq misses
system.l2.ReadSharedReq_misses::total              18                       # number of ReadSharedReq misses
system.l2.ReadSharedReq_miss_latency::.switch_cpus.data      1529000                       # number of ReadSharedReq miss cycles
system.l2.ReadSharedReq_miss_latency::total      1529000                       # number of ReadSharedReq miss cycles
system.l2.ReadSharedReq_accesses::.switch_cpus.data           19                       # number of ReadSharedReq accesses(hits+misses)
system.l2.ReadSharedReq_accesses::total            19                       # number of ReadSharedReq accesses(hits+misses)
system.l2.ReadSharedReq_miss_rate::.switch_cpus.data     0.947368                       # miss rate for ReadSharedReq accesses
system.l2.ReadSharedReq_miss_rate::total     0.947368                       # miss rate for ReadSharedReq accesses
system.l2.ReadSharedReq_avg_miss_latency::.switch_cpus.data 84944.444444                       # average ReadSharedReq miss latency
system.l2.ReadSharedReq_avg_miss_latency::total 84944.444444                       # average ReadSharedReq miss latency
system.l2.ReadSharedReq_mshr_misses::.switch_cpus.data           18                       # number of ReadSharedReq MSHR misses
system.l2.ReadSharedReq_mshr_misses::total           18                       # number of ReadSharedReq MSHR misses
system.l2.ReadSharedReq_mshr_miss_latency::.switch_cpus.data      1349000                       # number of ReadSharedReq MSHR miss cycles
system.l2.ReadSharedReq_mshr_miss_latency::total      1349000                       # number of ReadSharedReq MSHR miss cycles
system.l2.ReadSharedReq_mshr_miss_rate::.switch_cpus.data     0.947368                       # mshr miss rate for ReadSharedReq accesses
system.l2.ReadSharedReq_mshr_miss_rate::total     0.947368                       # mshr miss rate for ReadSharedReq accesses
system.l2.ReadSharedReq_avg_mshr_miss_latency::.switch_cpus.data 74944.444444                       # average ReadSharedReq mshr miss latency
system.l2.ReadSharedReq_avg_mshr_miss_latency::total 74944.444444                       # average ReadSharedReq mshr miss latency
system.l2.tags.pwrStateResidencyTicks::UNDEFINED 100514042500                       # Cumulative time (in ticks) in various power states
system.l2.tags.tagsinuse                    42.261783                       # Cycle average of tags in use
system.l2.tags.total_refs                           0                       # Total number of references to valid blocks.
system.l2.tags.sampled_refs                         0                       # Sample count of references to valid blocks.
system.l2.tags.avg_refs                           nan                       # Average number of references to valid blocks.
system.l2.tags.warmup_cycle              100443370000                       # Cycle when the warmup percentage was hit.
system.l2.tags.occ_blocks::.cpu.inst         0.999993                       # Average occupied blocks per requestor
system.l2.tags.occ_blocks::.cpu.data         0.999979                       # Average occupied blocks per requestor
system.l2.tags.occ_blocks::.switch_cpus.inst    22.895703                       # Average occupied blocks per requestor
system.l2.tags.occ_blocks::.switch_cpus.data    17.366109                       # Average occupied blocks per requestor
[...]
system.cpu.icache.ReadReq_mshr_miss_rate::total     0.000150                       # mshr miss rate for ReadReq accesses
system.cpu.icache.ReadReq_avg_mshr_miss_latency::.switch_cpus.inst 89807.692308                       # average ReadReq mshr miss latency
system.cpu.icache.ReadReq_avg_mshr_miss_latency::total 89807.692308                       # average ReadReq mshr miss latency
system.cpu.icache.tags.pwrStateResidencyTicks::UNDEFINED 101145019000                       # Cumulative time (in ticks) in various power states
system.cpu.icache.tags.tagsinuse             0.186512                       # Cycle average of tags in use
system.cpu.icache.tags.total_refs              173063                       # Total number of references to valid blocks.
system.cpu.icache.tags.sampled_refs                27                       # Sample count of references to valid blocks.
system.cpu.icache.tags.avg_refs           6409.740741                       # Average number of references to valid blocks.
system.cpu.icache.tags.warmup_cycle      100443370000                       # Cycle when the warmup percentage was hit.
system.cpu.icache.tags.occ_blocks::.cpu.inst     0.006937                       # Average occupied blocks per requestor
system.cpu.icache.tags.occ_blocks::.switch_cpus.inst     0.179575                       # Average occupied blocks per requestor
system.cpu.icache.tags.occ_percent::.cpu.inst     0.000014                       # Average percentage of cache occupancy
system.cpu.icache.tags.occ_percent::.switch_cpus.inst     0.000351                       # Average percentage of cache occupancy
system.cpu.icache.tags.occ_percent::total     0.000364                       # Average percentage of cache occupancy
system.cpu.icache.tags.occ_task_id_blocks::1024           27                       # Occupied blocks per task id
system.cpu.icache.tags.age_task_id_blocks_1024::2           27                       # Occupied blocks per task id
system.cpu.icache.tags.occ_task_id_percent::1024     0.052734                       # Percentage of cache occupancy per task id
system.cpu.icache.tags.tag_accesses            346215                       # Number of tag accesses
system.cpu.icache.tags.data_accesses           346215                       # Number of data accesses
system.cpu.dtb.walker.pwrStateResidencyTicks::UNDEFINED 101145019000                       # Cumulative time (in ticks) in various power states
system.cpu.interrupts.clk_domain.clock           8000                       # Clock period in ticks
system.cpu.itb_walker_cache.pwrStateResidencyTicks::UNDEFINED 101145019000                       # Cumulative time (in ticks) in various power states
system.cpu.itb_walker_cache.blocked_cycles::no_mshrs            0                       # number of cycles access was blocked
system.cpu.itb_walker_cache.blocked_cycles::no_targets            0                       # number of cycles access was blocked
system.cpu.itb_walker_cache.blocked::no_mshrs            0                       # number of cycles access was blocked
system.cpu.itb_walker_cache.blocked::no_targets            0                       # number of cycles access was blocked
system.cpu.itb_walker_cache.avg_blocked_cycles::no_mshrs          nan                       # average number of cycles each access was blocked
system.cpu.itb_walker_cache.avg_blocked_cycles::no_targets          nan                       # average number of cycles each access was blocked
system.cpu.itb_walker_cache.replacements            0                       # number of replacements
system.cpu.itb_walker_cache.tags.pwrStateResidencyTicks::UNDEFINED 101145019000                       # Cumulative time (in ticks) in various power states
system.cpu.itb_walker_cache.tags.tagsinuse            0                       # Cycle average of tags in use
system.cpu.itb_walker_cache.tags.total_refs            0                       # Total number of references to valid blocks.
system.cpu.itb_walker_cache.tags.sampled_refs            0                       # Sample count of references to valid blocks.
system.cpu.itb_walker_cache.tags.avg_refs          nan                       # Average number of references to valid blocks.
system.cpu.itb_walker_cache.tags.warmup_cycle            0                       # Cycle when the warmup percentage was hit.
system.cpu.itb_walker_cache.tags.tag_accesses            0                       # Number of tag accesses
system.cpu.itb_walker_cache.tags.data_accesses            0                       # Number of data accesses
system.cpu.itb.walker.pwrStateResidencyTicks::UNDEFINED 101145019000                       # Cumulative time (in ticks) in various power states
system.cpu.dtb_walker_cache.pwrStateResidencyTicks::UNDEFINED 101145019000                       # Cumulative time (in ticks) in various power states
system.cpu.dtb_walker_cache.blocked_cycles::no_mshrs            0                       # number of cycles access was blocked
system.cpu.dtb_walker_cache.blocked_cycles::no_targets            0                       # number of cycles access was blocked
system.cpu.dtb_walker_cache.blocked::no_mshrs            0                       # number of cycles access was blocked
system.cpu.dtb_walker_cache.blocked::no_targets            0                       # number of cycles access was blocked
system.cpu.dtb_walker_cache.avg_blocked_cycles::no_mshrs          nan                       # average number of cycles each access was blocked
system.cpu.dtb_walker_cache.avg_blocked_cycles::no_targets          nan                       # average number of cycles each access was blocked
system.cpu.dtb_walker_cache.replacements            0                       # number of replacements
system.cpu.dtb_walker_cache.tags.pwrStateResidencyTicks::UNDEFINED 101145019000                       # Cumulative time (in ticks) in various power states
system.cpu.dtb_walker_cache.tags.tagsinuse            0                       # Cycle average of tags in use
system.cpu.dtb_walker_cache.tags.total_refs            0                       # Total number of references to valid blocks.
system.cpu.dtb_walker_cache.tags.sampled_refs            0                       # Sample count of references to valid blocks.
system.cpu.dtb_walker_cache.tags.avg_refs          nan                       # Average number of references to valid blocks.
system.cpu.dtb_walker_cache.tags.warmup_cycle            0                       # Cycle when the warmup percentage was hit.
system.cpu.dtb_walker_cache.tags.tag_accesses            0                       # Number of tag accesses
system.cpu.dtb_walker_cache.tags.data_accesses            0                       # Number of data accesses
system.cpu.dcache.pwrStateResidencyTicks::UNDEFINED 101145019000                       # Cumulative time (in ticks) in various power states
system.cpu.dcache.demand_hits::.cpu.data            8                       # number of demand (read+write) hits
system.cpu.dcache.demand_hits::.switch_cpus.data       586919                       # number of demand (read+write) hits
system.cpu.dcache.demand_hits::total           586927                       # number of demand (read+write) hits
system.cpu.dcache.overall_hits::.cpu.data            8                       # number of overall hits
system.cpu.dcache.overall_hits::.switch_cpus.data       586919                       # number of overall hits
system.cpu.dcache.overall_hits::total          586927                       # number of overall hits
system.cpu.dcache.demand_misses::.cpu.data            1                       # number of demand (read+write) misses
system.cpu.dcache.demand_misses::.switch_cpus.data           44                       # number of demand (read+write) misses
system.cpu.dcache.demand_misses::total             45                       # number of demand (read+write) misses
system.cpu.dcache.overall_misses::.cpu.data            1                       # number of overall misses
system.cpu.dcache.overall_misses::.switch_cpus.data           44                       # number of overall misses
system.cpu.dcache.overall_misses::total            45                       # number of overall misses
system.cpu.dcache.demand_miss_latency::.switch_cpus.data      3124000                       # number of demand (read+write) miss cycles
system.cpu.dcache.demand_miss_latency::total      3124000                       # number of demand (read+write) miss cycles
system.cpu.dcache.overall_miss_latency::.switch_cpus.data      3124000                       # number of overall miss cycles
system.cpu.dcache.overall_miss_latency::total      3124000                       # number of overall miss cycles
system.cpu.dcache.demand_accesses::.cpu.data            9                       # number of demand (read+write) accesses
system.cpu.dcache.demand_accesses::.switch_cpus.data       586963                       # number of demand (read+write) accesses
system.cpu.dcache.demand_accesses::total       586972                       # number of demand (read+write) accesses
system.cpu.dcache.overall_accesses::.cpu.data            9                       # number of overall (read+write) accesses
system.cpu.dcache.overall_accesses::.switch_cpus.data       586963                       # number of overall (read+write) accesses
system.cpu.dcache.overall_accesses::total       586972                       # number of overall (read+write) accesses
system.cpu.dcache.demand_miss_rate::.cpu.data     0.111111                       # miss rate for demand accesses
system.cpu.dcache.demand_miss_rate::.switch_cpus.data     0.000075                       # miss rate for demand accesses
system.cpu.dcache.demand_miss_rate::total     0.000077                       # miss rate for demand accesses
system.cpu.dcache.overall_miss_rate::.cpu.data     0.111111                       # miss rate for overall accesses
system.cpu.dcache.overall_miss_rate::.switch_cpus.data     0.000075                       # miss rate for overall accesses
system.cpu.dcache.overall_miss_rate::total     0.000077                       # miss rate for overall accesses
system.cpu.dcache.demand_avg_miss_latency::.switch_cpus.data        71000                       # average overall miss latency
system.cpu.dcache.demand_avg_miss_latency::total 69422.222222                       # average overall miss latency
system.cpu.dcache.overall_avg_miss_latency::.switch_cpus.data        71000                       # average overall miss latency
system.cpu.dcache.overall_avg_miss_latency::total 69422.222222                       # average overall miss latency
system.cpu.dcache.blocked_cycles::no_mshrs           55                       # number of cycles access was blocked
system.cpu.dcache.blocked_cycles::no_targets            0                       # number of cycles access was blocked
system.cpu.dcache.blocked::no_mshrs                 1                       # number of cycles access was blocked
system.cpu.dcache.blocked::no_targets               0                       # number of cycles access was blocked
system.cpu.dcache.avg_blocked_cycles::no_mshrs           55                       # average number of cycles each access was blocked
system.cpu.dcache.avg_blocked_cycles::no_targets          nan                       # average number of cycles each access was blocked
system.cpu.dcache.demand_mshr_hits::.switch_cpus.data           25                       # number of demand (read+write) MSHR hits
system.cpu.dcache.demand_mshr_hits::total           25                       # number of demand (read+write) MSHR hits
system.cpu.dcache.overall_mshr_hits::.switch_cpus.data           25                       # number of overall MSHR hits
system.cpu.dcache.overall_mshr_hits::total           25                       # number of overall MSHR hits
system.cpu.dcache.demand_mshr_misses::.switch_cpus.data           19                       # number of demand (read+write) MSHR misses
system.cpu.dcache.demand_mshr_misses::total           19                       # number of demand (read+write) MSHR misses
system.cpu.dcache.overall_mshr_misses::.switch_cpus.data           19                       # number of overall MSHR misses
system.cpu.dcache.overall_mshr_misses::total           19                       # number of overall MSHR misses
system.cpu.dcache.demand_mshr_miss_latency::.switch_cpus.data      1570500                       # number of demand (read+write) MSHR miss cycles
system.cpu.dcache.demand_mshr_miss_latency::total      1570500                       # number of demand (read+write) MSHR miss cycles
system.cpu.dcache.overall_mshr_miss_latency::.switch_cpus.data      1570500                       # number of overall MSHR miss cycles
system.cpu.dcache.overall_mshr_miss_latency::total      1570500                       # number of overall MSHR miss cycles
system.cpu.dcache.demand_mshr_miss_rate::.switch_cpus.data     0.000032                       # mshr miss rate for demand accesses
system.cpu.dcache.demand_mshr_miss_rate::total     0.000032                       # mshr miss rate for demand accesses
system.cpu.dcache.overall_mshr_miss_rate::.switch_cpus.data     0.000032                       # mshr miss rate for overall accesses
system.cpu.dcache.overall_mshr_miss_rate::total     0.000032                       # mshr miss rate for overall accesses
system.cpu.dcache.demand_avg_mshr_miss_latency::.switch_cpus.data 82657.894737                       # average overall mshr miss latency
system.cpu.dcache.demand_avg_mshr_miss_latency::total 82657.894737                       # average overall mshr miss latency
system.cpu.dcache.overall_avg_mshr_miss_latency::.switch_cpus.data 82657.894737                       # average overall mshr miss latency
system.cpu.dcache.overall_avg_mshr_miss_latency::total 82657.894737                       # average overall mshr miss latency
system.cpu.dcache.replacements                      0                       # number of replacements
system.cpu.dcache.ReadReq_hits::.cpu.data            6                       # number of ReadReq hits
system.cpu.dcache.ReadReq_hits::.switch_cpus.data       320841                       # number of ReadReq hits
system.cpu.dcache.ReadReq_hits::total          320847                       # number of ReadReq hits
system.cpu.dcache.ReadReq_misses::.switch_cpus.data           44                       # number of ReadReq misses
system.cpu.dcache.ReadReq_misses::total            44                       # number of ReadReq misses
system.cpu.dcache.ReadReq_miss_latency::.switch_cpus.data      3124000                       # number of ReadReq miss cycles
system.cpu.dcache.ReadReq_miss_latency::total      3124000                       # number of ReadReq miss cycles
system.cpu.dcache.ReadReq_accesses::.cpu.data            6                       # number of ReadReq accesses(hits+misses)
system.cpu.dcache.ReadReq_accesses::.switch_cpus.data       320885                       # number of ReadReq accesses(hits+misses)
system.cpu.dcache.ReadReq_accesses::total       320891                       # number of ReadReq accesses(hits+misses)
system.cpu.dcache.ReadReq_miss_rate::.switch_cpus.data     0.000137                       # miss rate for ReadReq accesses
system.cpu.dcache.ReadReq_miss_rate::total     0.000137                       # miss rate for ReadReq accesses
system.cpu.dcache.ReadReq_avg_miss_latency::.switch_cpus.data        71000                       # average ReadReq miss latency
system.cpu.dcache.ReadReq_avg_miss_latency::total        71000                       # average ReadReq miss latency
system.cpu.dcache.ReadReq_mshr_hits::.switch_cpus.data           25                       # number of ReadReq MSHR hits
system.cpu.dcache.ReadReq_mshr_hits::total           25                       # number of ReadReq MSHR hits
system.cpu.dcache.ReadReq_mshr_misses::.switch_cpus.data           19                       # number of ReadReq MSHR misses
system.cpu.dcache.ReadReq_mshr_misses::total           19                       # number of ReadReq MSHR misses
system.cpu.dcache.ReadReq_mshr_miss_latency::.switch_cpus.data      1570500                       # number of ReadReq MSHR miss cycles
system.cpu.dcache.ReadReq_mshr_miss_latency::total      1570500                       # number of ReadReq MSHR miss cycles
system.cpu.dcache.ReadReq_mshr_miss_rate::.switch_cpus.data     0.000059                       # mshr miss rate for ReadReq accesses
system.cpu.dcache.ReadReq_mshr_miss_rate::total     0.000059                       # mshr miss rate for ReadReq accesses
system.cpu.dcache.ReadReq_avg_mshr_miss_latency::.switch_cpus.data 82657.894737                       # average ReadReq mshr miss latency
system.cpu.dcache.ReadReq_avg_mshr_miss_latency::total 82657.894737                       # average ReadReq mshr miss latency
system.cpu.dcache.WriteReq_hits::.cpu.data            2                       # number of WriteReq hits
system.cpu.dcache.WriteReq_hits::.switch_cpus.data       266078                       # number of WriteReq hits
system.cpu.dcache.WriteReq_hits::total         266080                       # number of WriteReq hits
system.cpu.dcache.WriteReq_misses::.cpu.data            1                       # number of WriteReq misses
system.cpu.dcache.WriteReq_misses::total            1                       # number of WriteReq misses
system.cpu.dcache.WriteReq_accesses::.cpu.data            3                       # number of WriteReq accesses(hits+misses)
system.cpu.dcache.WriteReq_accesses::.switch_cpus.data       266078                       # number of WriteReq accesses(hits+misses)
system.cpu.dcache.WriteReq_accesses::total       266081                       # number of WriteReq accesses(hits+misses)
system.cpu.dcache.WriteReq_miss_rate::.cpu.data     0.333333                       # miss rate for WriteReq accesses
system.cpu.dcache.WriteReq_miss_rate::total     0.000004                       # miss rate for WriteReq accesses
system.cpu.dcache.tags.pwrStateResidencyTicks::UNDEFINED 101145019000                       # Cumulative time (in ticks) in various power states
system.cpu.dcache.tags.tagsinuse             0.138287                       # Cycle average of tags in use
system.cpu.dcache.tags.total_refs              586947                       # Total number of references to valid blocks.
system.cpu.dcache.tags.sampled_refs                20                       # Sample count of references to valid blocks.
system.cpu.dcache.tags.avg_refs          29347.350000                       # Average number of references to valid blocks.
system.cpu.dcache.tags.warmup_cycle      100443371000                       # Cycle when the warmup percentage was hit.
system.cpu.dcache.tags.occ_blocks::.cpu.data     0.006937                       # Average occupied blocks per requestor
system.cpu.dcache.tags.occ_blocks::.switch_cpus.data     0.131350                       # Average occupied blocks per requestor
system.cpu.dcache.tags.occ_percent::.cpu.data     0.000007                       # Average percentage of cache occupancy
system.cpu.dcache.tags.occ_percent::.switch_cpus.data     0.000128                       # Average percentage of cache occupancy
system.cpu.dcache.tags.occ_percent::total     0.000135                       # Average percentage of cache occupancy
system.cpu.dcache.tags.occ_task_id_blocks::1024           20                       # Occupied blocks per task id
system.cpu.dcache.tags.age_task_id_blocks_1024::2           20                       # Occupied blocks per task id
system.cpu.dcache.tags.occ_task_id_percent::1024     0.019531                       # Percentage of cache occupancy per task id
system.cpu.dcache.tags.tag_accesses           1173964                       # Number of tag accesses
system.cpu.dcache.tags.data_accesses          1173964                       # Number of data accesses

---------- End Simulation Statistics   ----------
