
---------- Begin Simulation Statistics ----------
final_tick                                24384746500                       # Number of ticks from beginning of simulation (restored from checkpoints and never reset)
host_inst_rate                                 108751                       # Simulator instruction rate (inst/s)
host_mem_usage                                 689064                       # Number of bytes of host memory used
host_op_rate                                   185969                       # Simulator op (including micro ops) rate (op/s)
host_seconds                                     0.92                       # Real time elapsed on the host
host_tick_rate                               77580340                       # Simulator tick rate (ticks/s)
sim_freq                                 1000000000000                       # Frequency of simulated ticks
sim_insts                                      100011                       # Number of instructions simulated
sim_ops                                        171040                       # Number of ops (including micro ops) simulated
sim_seconds                                  0.000071                       # Number of seconds simulated
sim_ticks                                    71354000                       # Number of ticks simulated
system.cpu.committedInsts                          11                       # Number of instructions committed
system.cpu.committedOps                            20                       # Number of ops (including micro ops) committed
system.cpu.dtb.rdAccesses                           7                       # TLB accesses on read requests
system.cpu.dtb.rdMisses                             0                       # TLB misses on read requests
system.cpu.dtb.wrAccesses                           4                       # TLB accesses on write requests
system.cpu.dtb.wrMisses                             0                       # TLB misses on write requests
system.cpu.idle_fraction                            0                       # Percentage of idle cycles
system.cpu.itb.rdAccesses                           0                       # TLB accesses on read requests
system.cpu.itb.rdMisses                             0                       # TLB misses on read requests
system.cpu.itb.wrAccesses                          13                       # TLB accesses on write requests
system.cpu.itb.wrMisses                             0                       # TLB misses on write requests
system.cpu.not_idle_fraction                        1                       # Percentage of non-idle cycles
system.cpu.numCycles                               22                       # number of cpu cycles simulated
system.cpu.numWorkItemsCompleted                    0                       # number of work items this cpu completed
system.cpu.numWorkItemsStarted                      0                       # number of work items this cpu started
system.cpu.num_busy_cycles                         22                       # Number of busy cycles
system.cpu.num_cc_register_reads                    5                       # number of times the CC registers were read
system.cpu.num_cc_register_writes                  12                       # number of times the CC registers were written
system.cpu.num_conditional_control_insts            0                       # number of instructions that are conditional controls
system.cpu.num_fp_alu_accesses                      0                       # Number of float alu accesses
system.cpu.num_fp_insts                             0                       # number of float instructions
system.cpu.num_fp_register_reads                    0                       # number of times the floating registers were read
system.cpu.num_fp_register_writes                   0                       # number of times the floating registers were written
system.cpu.num_func_calls                           0                       # number of times a function call or return occured
system.cpu.num_idle_cycles                          0                       # Number of idle cycles
system.cpu.num_int_alu_accesses                    20                       # Number of integer alu accesses
system.cpu.num_int_insts                           20                       # number of integer instructions
system.cpu.num_int_register_reads                  59                       # number of times the integer registers were read
system.cpu.num_int_register_writes                 16                       # number of times the integer registers were written
system.cpu.num_load_insts                           7                       # Number of load instructions
system.cpu.num_mem_refs                            11                       # number of memory refs
system.cpu.num_store_insts                          4                       # Number of store instructions
system.cpu.num_vec_alu_accesses                     0                       # Number of vector alu accesses
system.cpu.num_vec_insts                            0                       # number of vector instructions
system.cpu.num_vec_register_reads                   0                       # number of times the vector registers were read
system.cpu.num_vec_register_writes                  0                       # number of times the vector registers were written
system.cpu.op_class::No_OpClass                     0      0.00%      0.00% # Class of executed instruction
system.cpu.op_class::IntAlu                         9     45.00%     45.00% # Class of executed instruction
system.cpu.op_class::IntMult                        0      0.00%     45.00% # Class of executed instruction
system.cpu.op_class::IntDiv                         0      0.00%     45.00% # Class of executed instruction
system.cpu.op_class::FloatAdd                       0      0.00%     45.00% # Class of executed instruction
system.cpu.op_class::FloatCmp                       0      0.00%     45.00% # Class of executed instruction
system.cpu.op_class::FloatCvt                       0      0.00%     45.00% # Class of executed instruction
system.cpu.op_class::FloatMult                      0      0.00%     45.00% # Class of executed instruction
system.cpu.op_class::FloatMultAcc                   0      0.00%     45.00% # Class of executed instruction
system.cpu.op_class::FloatDiv                       0      0.00%     45.00% # Class of executed instruction
system.cpu.op_class::FloatMisc                      0      0.00%     45.00% # Class of executed instruction
system.cpu.op_class::FloatSqrt                      0      0.00%     45.00% # Class of executed instruction
system.cpu.op_class::SimdAdd                        0      0.00%     45.00% # Class of executed instruction
system.cpu.op_class::SimdAddAcc                     0      0.00%     45.00% # Class of executed instruction
system.cpu.op_class::SimdAlu                        0      0.00%     45.00% # Class of executed instruction
system.cpu.op_class::SimdCmp                        0      0.00%     45.00% # Class of executed instruction
system.cpu.op_class::SimdCvt                        0      0.00%     45.00% # Class of executed instruction
system.cpu.op_class::SimdMisc                       0      0.00%     45.00% # Class of executed instruction
system.cpu.op_class::SimdMult                       0      0.00%     45.00% # Class of executed instruction
system.cpu.op_class::SimdMultAcc                    0      0.00%     45.00% # Class of executed instruction
system.cpu.op_class::SimdShift                      0      0.00%     45.00% # Class of executed instruction
system.cpu.op_class::SimdShiftAcc                   0      0.00%     45.00% # Class of executed instruction
system.cpu.op_class::SimdDiv                        0      0.00%     45.00% # Class of executed instruction
system.cpu.op_class::SimdSqrt                       0      0.00%     45.00% # Class of executed instruction
system.cpu.op_class::SimdFloatAdd                   0      0.00%     45.00% # Class of executed instruction
system.cpu.op_class::SimdFloatAlu                   0      0.00%     45.00% # Class of executed instruction
system.cpu.op_class::SimdFloatCmp                   0      0.00%     45.00% # Class of executed instruction
system.cpu.op_class::SimdFloatCvt                   0      0.00%     45.00% # Class of executed instruction
system.cpu.op_class::SimdFloatDiv                   0      0.00%     45.00% # Class of executed instruction
system.cpu.op_class::SimdFloatMisc                  0      0.00%     45.00% # Class of executed instruction
system.cpu.op_class::SimdFloatMult                  0      0.00%     45.00% # Class of executed instruction
system.cpu.op_class::SimdFloatMultAcc               0      0.00%     45.00% # Class of executed instruction
system.cpu.op_class::SimdFloatSqrt                  0      0.00%     45.00% # Class of executed instruction
system.cpu.op_class::SimdReduceAdd                  0      0.00%     45.00% # Class of executed instruction
system.cpu.op_class::SimdReduceAlu                  0      0.00%     45.00% # Class of executed instruction
system.cpu.op_class::SimdReduceCmp                  0      0.00%     45.00% # Class of executed instruction
system.cpu.op_class::SimdFloatReduceAdd             0      0.00%     45.00% # Class of executed instruction
system.cpu.op_class::SimdFloatReduceCmp             0      0.00%     45.00% # Class of executed instruction
system.cpu.op_class::SimdAes                        0      0.00%     45.00% # Class of executed instruction
system.cpu.op_class::SimdAesMix                     0      0.00%     45.00% # Class of executed instruction
system.cpu.op_class::SimdSha1Hash                   0      0.00%     45.00% # Class of executed instruction
system.cpu.op_class::SimdSha1Hash2                  0      0.00%     45.00% # Class of executed instruction
system.cpu.op_class::SimdSha256Hash                 0      0.00%     45.00% # Class of executed instruction
system.cpu.op_class::SimdSha256Hash2                0      0.00%     45.00% # Class of executed instruction
system.cpu.op_class::SimdShaSigma2                  0      0.00%     45.00% # Class of executed instruction
system.cpu.op_class::SimdShaSigma3                  0      0.00%     45.00% # Class of executed instruction
system.cpu.op_class::SimdPredAlu                    0      0.00%     45.00% # Class of executed instruction
system.cpu.op_class::MemRead                        7     35.00%     80.00% # Class of executed instruction
system.cpu.op_class::MemWrite                       4     20.00%    100.00% # Class of executed instruction
system.cpu.op_class::FloatMemRead                   0      0.00%    100.00% # Class of executed instruction
system.cpu.op_class::FloatMemWrite                  0      0.00%    100.00% # Class of executed instruction
system.cpu.op_class::IprAccess                      0      0.00%    100.00% # Class of executed instruction
system.cpu.op_class::InstPrefetch                   0      0.00%    100.00% # Class of executed instruction
system.cpu.op_class::total                         20                       # Class of executed instruction
system.cpu.workload.numSyscalls                     0                       # Number of system calls
system.membus.snoop_filter.hit_multi_requests            0                       # Number of requests hitting in the snoop filter with multiple (>1) holders of the requested data.
system.membus.snoop_filter.hit_multi_snoops            0                       # Number of snoops hitting in the snoop filter with multiple (>1) holders of the requested data.
system.membus.snoop_filter.hit_single_requests            0                       # Number of requests hitting in the snoop filter with a single holder of the requested data.
system.membus.snoop_filter.hit_single_snoops            0                       # Number of snoops hitting in the snoop filter with a single holder of the requested data.
system.membus.snoop_filter.tot_requests            43                       # Total number of requests made to the snoop filter.
system.membus.snoop_filter.tot_snoops               0                       # Total number of snoops made to the snoop filter.
system.switch_cpus.branchPred.BTBCorrect            0                       # Number of correct BTB predictions (this stat may not work properly.
system.switch_cpus.branchPred.BTBHitPct      0.000000                       # BTB Hit Percentage
system.switch_cpus.branchPred.BTBHits               0                       # Number of BTB hits
system.switch_cpus.branchPred.BTBLookups        14826                       # Number of BTB lookups
system.switch_cpus.branchPred.RASInCorrect           24                       # Number of incorrect RAS predictions.
system.switch_cpus.branchPred.condIncorrect         1605                       # Number of conditional branches incorrect
system.switch_cpus.branchPred.condPredicted        16666                       # Number of conditional branches predicted
system.switch_cpus.branchPred.indirectHits         9765                       # Number of indirect target hits.
system.switch_cpus.branchPred.indirectLookups        14826                       # Number of indirect predictor lookups.
system.switch_cpus.branchPred.indirectMisses         5061                       # Number of indirect misses.
system.switch_cpus.branchPred.lookups           19173                       # Number of BP lookups
system.switch_cpus.branchPred.usedRAS            1283                       # Number of times the RAS was used to get a target.
system.switch_cpus.branchPredindirectMispredicted          767                       # Number of mispredicted indirect branches.
system.switch_cpus.cc_regfile_reads             75229                       # number of cc regfile reads
system.switch_cpus.cc_regfile_writes            89573                       # number of cc regfile writes
system.switch_cpus.commit.amos                      0                       # Number of atomic instructions committed
system.switch_cpus.commit.branchMispredicts         1605                       # The number of times a branch was mispredicted
system.switch_cpus.commit.branches               8165                       # Number of branches committed
system.switch_cpus.commit.bw_lim_events          2357                       # number cycles where commit BW limit reached
system.switch_cpus.commit.commitSquashedInsts        89517                       # The number of squashed insts skipped by commit
system.switch_cpus.commit.committedInsts       100000                       # Number of instructions committed
system.switch_cpus.commit.committedOps         171020                       # Number of ops (including micro ops) committed
system.switch_cpus.commit.committed_per_cycle::samples       128605                       # Number of insts commited each cycle
system.switch_cpus.commit.committed_per_cycle::mean     1.329808                       # Number of insts commited each cycle
system.switch_cpus.commit.committed_per_cycle::stdev     1.547241                       # Number of insts commited each cycle
system.switch_cpus.commit.committed_per_cycle::underflows            0      0.00%      0.00% # Number of insts commited each cycle
system.switch_cpus.commit.committed_per_cycle::0        40650     31.61%     31.61% # Number of insts commited each cycle
system.switch_cpus.commit.committed_per_cycle::1        50982     39.64%     71.25% # Number of insts commited each cycle
system.switch_cpus.commit.committed_per_cycle::2        14968     11.64%     82.89% # Number of insts commited each cycle
system.switch_cpus.commit.committed_per_cycle::3        11218      8.72%     91.61% # Number of insts commited each cycle
system.switch_cpus.commit.committed_per_cycle::4         5810      4.52%     96.13% # Number of insts commited each cycle
system.switch_cpus.commit.committed_per_cycle::5         1568      1.22%     97.35% # Number of insts commited each cycle
system.switch_cpus.commit.committed_per_cycle::6          852      0.66%     98.01% # Number of insts commited each cycle
system.switch_cpus.commit.committed_per_cycle::7          200      0.16%     98.17% # Number of insts commited each cycle
system.switch_cpus.commit.committed_per_cycle::8         2357      1.83%    100.00% # Number of insts commited each cycle
system.switch_cpus.commit.committed_per_cycle::overflows            0      0.00%    100.00% # Number of insts commited each cycle
system.switch_cpus.commit.committed_per_cycle::min_value            0                       # Number of insts commited each cycle
system.switch_cpus.commit.committed_per_cycle::max_value            8                       # Number of insts commited each cycle
system.switch_cpus.commit.committed_per_cycle::total       128605                       # Number of insts commited each cycle
system.switch_cpus.commit.fp_insts                  0                       # Number of committed floating point instructions.
system.switch_cpus.commit.function_calls          277                       # Number of function calls committed.
system.switch_cpus.commit.int_insts            171016                       # Number of committed integer instructions.
system.switch_cpus.commit.loads                 50262                       # Number of loads committed
system.switch_cpus.commit.membars                   0                       # Number of memory barriers committed
system.switch_cpus.commit.op_class_0::No_OpClass            0      0.00%      0.00% # Class of committed instruction
system.switch_cpus.commit.op_class_0::IntAlu        96822     56.61%     56.61% # Class of committed instruction
system.switch_cpus.commit.op_class_0::IntMult            0      0.00%     56.61% # Class of committed instruction
system.switch_cpus.commit.op_class_0::IntDiv            0      0.00%     56.61% # Class of committed instruction
system.switch_cpus.commit.op_class_0::FloatAdd            0      0.00%     56.61% # Class of committed instruction
system.switch_cpus.commit.op_class_0::FloatCmp            0      0.00%     56.61% # Class of committed instruction
system.switch_cpus.commit.op_class_0::FloatCvt            0      0.00%     56.61% # Class of committed instruction
system.switch_cpus.commit.op_class_0::FloatMult            0      0.00%     56.61% # Class of committed instruction
system.switch_cpus.commit.op_class_0::FloatMultAcc            0      0.00%     56.61% # Class of committed instruction
system.switch_cpus.commit.op_class_0::FloatDiv            0      0.00%     56.61% # Class of committed instruction
system.switch_cpus.commit.op_class_0::FloatMisc            0      0.00%     56.61% # Class of committed instruction
system.switch_cpus.commit.op_class_0::FloatSqrt            0      0.00%     56.61% # Class of committed instruction
system.switch_cpus.commit.op_class_0::SimdAdd            0      0.00%     56.61% # Class of committed instruction
system.switch_cpus.commit.op_class_0::SimdAddAcc            0      0.00%     56.61% # Class of committed instruction
system.switch_cpus.commit.op_class_0::SimdAlu            0      0.00%     56.61% # Class of committed instruction
system.switch_cpus.commit.op_class_0::SimdCmp            0      0.00%     56.61% # Class of committed instruction
system.switch_cpus.commit.op_class_0::SimdCvt            0      0.00%     56.61% # Class of committed instruction
system.switch_cpus.commit.op_class_0::SimdMisc            0      0.00%     56.61% # Class of committed instruction
system.switch_cpus.commit.op_class_0::SimdMult            0      0.00%     56.61% # Class of committed instruction
system.switch_cpus.commit.op_class_0::SimdMultAcc            0      0.00%     56.61% # Class of committed instruction
system.switch_cpus.commit.op_class_0::SimdShift            0      0.00%     56.61% # Class of committed instruction
system.switch_cpus.commit.op_class_0::SimdShiftAcc            0      0.00%     56.61% # Class of committed instruction
system.switch_cpus.commit.op_class_0::SimdDiv            0      0.00%     56.61% # Class of committed instruction
system.switch_cpus.commit.op_class_0::SimdSqrt            0      0.00%     56.61% # Class of committed instruction
system.switch_cpus.commit.op_class_0::SimdFloatAdd            0      0.00%     56.61% # Class of committed instruction
system.switch_cpus.commit.op_class_0::SimdFloatAlu            0      0.00%     56.61% # Class of committed instruction
system.switch_cpus.commit.op_class_0::SimdFloatCmp            0      0.00%     56.61% # Class of committed instruction
system.switch_cpus.commit.op_class_0::SimdFloatCvt            0      0.00%     56.61% # Class of committed instruction
system.switch_cpus.commit.op_class_0::SimdFloatDiv            0      0.00%     56.61% # Class of committed instruction
system.switch_cpus.commit.op_class_0::SimdFloatMisc            0      0.00%     56.61% # Class of committed instruction
system.switch_cpus.commit.op_class_0::SimdFloatMult            0      0.00%     56.61% # Class of committed instruction
system.switch_cpus.commit.op_class_0::SimdFloatMultAcc            0      0.00%     56.61% # Class of committed instruction
system.switch_cpus.commit.op_class_0::SimdFloatSqrt            0      0.00%     56.61% # Class of committed instruction
system.switch_cpus.commit.op_class_0::SimdReduceAdd            0      0.00%     56.61% # Class of committed instruction
system.switch_cpus.commit.op_class_0::SimdReduceAlu            0      0.00%     56.61% # Class of committed instruction
system.switch_cpus.commit.op_class_0::SimdReduceCmp            0      0.00%     56.61% # Class of committed instruction
system.switch_cpus.commit.op_class_0::SimdFloatReduceAdd            0      0.00%     56.61% # Class of committed instruction
system.switch_cpus.commit.op_class_0::SimdFloatReduceCmp            0      0.00%     56.61% # Class of committed instruction
system.switch_cpus.commit.op_class_0::SimdAes            0      0.00%     56.61% # Class of committed instruction
system.switch_cpus.commit.op_class_0::SimdAesMix            0      0.00%     56.61% # Class of committed instruction
system.switch_cpus.commit.op_class_0::SimdSha1Hash            0      0.00%     56.61% # Class of committed instruction
system.switch_cpus.commit.op_class_0::SimdSha1Hash2            0      0.00%     56.61% # Class of committed instruction
system.switch_cpus.commit.op_class_0::SimdSha256Hash            0      0.00%     56.61% # Class of committed instruction
system.switch_cpus.commit.op_class_0::SimdSha256Hash2            0      0.00%     56.61% # Class of committed instruction
system.switch_cpus.commit.op_class_0::SimdShaSigma2            0      0.00%     56.61% # Class of committed instruction
system.switch_cpus.commit.op_class_0::SimdShaSigma3            0      0.00%     56.61% # Class of committed instruction
system.switch_cpus.commit.op_class_0::SimdPredAlu            0      0.00%     56.61% # Class of committed instruction
system.switch_cpus.commit.op_class_0::MemRead        50262     29.39%     86.00% # Class of committed instruction
system.switch_cpus.commit.op_class_0::MemWrite        23936     14.00%    100.00% # Class of committed instruction
system.switch_cpus.commit.op_class_0::FloatMemRead            0      0.00%    100.00% # Class of committed instruction
system.switch_cpus.commit.op_class_0::FloatMemWrite            0      0.00%    100.00% # Class of committed instruction
system.switch_cpus.commit.op_class_0::IprAccess            0      0.00%    100.00% # Class of committed instruction
system.switch_cpus.commit.op_class_0::InstPrefetch            0      0.00%    100.00% # Class of committed instruction
system.switch_cpus.commit.op_class_0::total       171020                       # Class of committed instruction
system.switch_cpus.commit.refs                  74198                       # Number of memory references committed
system.switch_cpus.commit.swp_count                 0                       # Number of s/w prefetches committed
system.switch_cpus.commit.vec_insts                 0                       # Number of committed Vector instructions.
system.switch_cpus.committedInsts              100000                       # Number of Instructions Simulated
system.switch_cpus.committedOps                171020                       # Number of Ops (including micro ops) Simulated
system.switch_cpus.cpi                       1.426860                       # CPI: Cycles Per Instruction
system.switch_cpus.cpi_total                 1.426860                       # CPI: Total CPI of All Threads
system.switch_cpus.decode.BlockedCycles         87497                       # Number of cycles decode is blocked
system.switch_cpus.decode.DecodedInsts         282973                       # Number of instructions handled by decode
system.switch_cpus.decode.IdleCycles            14477                       # Number of cycles decode is idle
system.switch_cpus.decode.RunCycles             19171                       # Number of cycles decode is running
system.switch_cpus.decode.SquashCycles           1856                       # Number of cycles decode is squashing
system.switch_cpus.decode.UnblockCycles         18898                       # Number of cycles decode is unblocking
system.switch_cpus.dtb.rdAccesses               58753                       # TLB accesses on read requests
system.switch_cpus.dtb.rdMisses                    16                       # TLB misses on read requests
system.switch_cpus.dtb.wrAccesses               26833                       # TLB accesses on write requests
system.switch_cpus.dtb.wrMisses                     0                       # TLB misses on write requests
system.switch_cpus.fetch.Branches               19173                       # Number of branches that fetch encountered
system.switch_cpus.fetch.CacheLines             21096                       # Number of cache lines fetched
system.switch_cpus.fetch.Cycles                117408                       # Number of cycles fetch has run and was not squashing or blocked
system.switch_cpus.fetch.IcacheSquashes           432                       # Number of outstanding Icache misses that were squashed
system.switch_cpus.fetch.Insts                 172750                       # Number of instructions fetch has processed
system.switch_cpus.fetch.PendingQuiesceStallCycles            4                       # Number of stall cycles due to pending quiesce instructions
system.switch_cpus.fetch.SquashCycles            3712                       # Number of cycles fetch has spent squashing
system.switch_cpus.fetch.branchRate          0.134372                       # Number of branch fetches per cycle
system.switch_cpus.fetch.icacheStallCycles        22633                       # Number of cycles fetch is stalled on an Icache miss
system.switch_cpus.fetch.predictedBranches        11048                       # Number of branches that fetch has predicted taken
system.switch_cpus.fetch.rate                1.210700                       # Number of inst fetches per cycle
system.switch_cpus.fetch.rateDist::samples       141901                       # Number of instructions fetched each cycle (Total)
system.switch_cpus.fetch.rateDist::mean      2.167250                       # Number of instructions fetched each cycle (Total)
system.switch_cpus.fetch.rateDist::stdev     3.237853                       # Number of instructions fetched each cycle (Total)
system.switch_cpus.fetch.rateDist::underflows            0      0.00%      0.00% # Number of instructions fetched each cycle (Total)
system.switch_cpus.fetch.rateDist::0            91172     64.25%     64.25% # Number of instructions fetched each cycle (Total)
system.switch_cpus.fetch.rateDist::1             2942      2.07%     66.32% # Number of instructions fetched each cycle (Total)
system.switch_cpus.fetch.rateDist::2             2938      2.07%     68.39% # Number of instructions fetched each cycle (Total)
system.switch_cpus.fetch.rateDist::3             3664      2.58%     70.98% # Number of instructions fetched each cycle (Total)
system.switch_cpus.fetch.rateDist::4             6381      4.50%     75.47% # Number of instructions fetched each cycle (Total)
system.switch_cpus.fetch.rateDist::5             2511      1.77%     77.24% # Number of instructions fetched each cycle (Total)
system.switch_cpus.fetch.rateDist::6             2659      1.87%     79.12% # Number of instructions fetched each cycle (Total)
system.switch_cpus.fetch.rateDist::7             3380      2.38%     81.50% # Number of instructions fetched each cycle (Total)
system.switch_cpus.fetch.rateDist::8            26254     18.50%    100.00% # Number of instructions fetched each cycle (Total)
system.switch_cpus.fetch.rateDist::overflows            0      0.00%    100.00% # Number of instructions fetched each cycle (Total)
system.switch_cpus.fetch.rateDist::min_value            0                       # Number of instructions fetched each cycle (Total)
system.switch_cpus.fetch.rateDist::max_value            8                       # Number of instructions fetched each cycle (Total)
system.switch_cpus.fetch.rateDist::total       141901                       # Number of instructions fetched each cycle (Total)
system.switch_cpus.fp_regfile_writes               56                       # number of floating regfile writes
system.switch_cpus.idleCycles                     785                       # Total number of cycles that the CPU has spent unscheduled due to idling
system.switch_cpus.iew.branchMispredicts         1992                       # Number of branch mispredicts detected at execute
system.switch_cpus.iew.exec_branches            10590                       # Number of branches executed
system.switch_cpus.iew.exec_nop                     0                       # number of nop insts executed
system.switch_cpus.iew.exec_rate             1.479998                       # Inst execution rate
system.switch_cpus.iew.exec_refs                85582                       # number of memory reference insts executed
system.switch_cpus.iew.exec_stores              26833                       # Number of stores executed
system.switch_cpus.iew.exec_swp                     0                       # number of swp insts executed
system.switch_cpus.iew.iewBlockCycles           11636                       # Number of cycles IEW is blocking
system.switch_cpus.iew.iewDispLoadInsts         73422                       # Number of dispatched load instructions
system.switch_cpus.iew.iewDispNonSpecInsts            0                       # Number of dispatched non-speculative instructions
system.switch_cpus.iew.iewDispSquashedInsts           72                       # Number of squashed instructions skipped by dispatch
system.switch_cpus.iew.iewDispStoreInsts        34975                       # Number of dispatched store instructions
system.switch_cpus.iew.iewDispatchedInsts       260623                       # Number of instructions dispatched to IQ
system.switch_cpus.iew.iewExecLoadInsts         58749                       # Number of load instructions executed
system.switch_cpus.iew.iewExecSquashedInsts         3635                       # Number of squashed instructions skipped in execute
system.switch_cpus.iew.iewExecutedInsts        211175                       # Number of executed instructions
system.switch_cpus.iew.iewIQFullEvents              6                       # Number of times the IQ has become full, causing a stall
system.switch_cpus.iew.iewIdleCycles                0                       # Number of cycles IEW is idle
system.switch_cpus.iew.iewLSQFullEvents           100                       # Number of times the LSQ has become full, causing a stall
system.switch_cpus.iew.iewSquashCycles           1856                       # Number of cycles IEW is squashing
system.switch_cpus.iew.iewUnblockCycles           105                       # Number of cycles IEW is unblocking
system.switch_cpus.iew.lsq.thread0.blockedLoads            0                       # Number of blocked loads due to partial load-store forwarding
system.switch_cpus.iew.lsq.thread0.cacheBlocked            0                       # Number of times an access to memory failed due to the cache being blocked
system.switch_cpus.iew.lsq.thread0.forwLoads        25323                       # Number of loads that had data forwarded from stores
system.switch_cpus.iew.lsq.thread0.ignoredResponses           35                       # Number of memory responses ignored because the instruction is squashed
system.switch_cpus.iew.lsq.thread0.invAddrLoads            0                       # Number of loads ignored due to an invalid address
system.switch_cpus.iew.lsq.thread0.invAddrSwpfs            0                       # Number of software prefetches ignored due to an invalid address
system.switch_cpus.iew.lsq.thread0.memOrderViolation          303                       # Number of memory ordering violations
system.switch_cpus.iew.lsq.thread0.rescheduledLoads            0                       # Number of loads that were rescheduled
system.switch_cpus.iew.lsq.thread0.squashedLoads        23140                       # Number of loads squashed
system.switch_cpus.iew.lsq.thread0.squashedStores        11030                       # Number of stores squashed
system.switch_cpus.iew.memOrderViolationEvents          303                       # Number of memory order violations
system.switch_cpus.iew.predictedNotTakenIncorrect         1657                       # Number of branches that were predicted not taken incorrectly
system.switch_cpus.iew.predictedTakenIncorrect          335                       # Number of branches that were predicted taken incorrectly
system.switch_cpus.iew.wb_consumers            256888                       # num instructions consuming a value
system.switch_cpus.iew.wb_count                209204                       # cumulative count of insts written-back
system.switch_cpus.iew.wb_fanout             0.630481                       # average fanout of values written-back
system.switch_cpus.iew.wb_producers            161963                       # num instructions producing a value
system.switch_cpus.iew.wb_rate               1.466184                       # insts written-back per cycle
system.switch_cpus.iew.wb_sent                 210392                       # cumulative count of insts sent to commit
system.switch_cpus.int_regfile_reads           366757                       # number of integer regfile reads
system.switch_cpus.int_regfile_writes          172971                       # number of integer regfile writes
system.switch_cpus.ipc                       0.700840                       # IPC: Instructions Per Cycle
system.switch_cpus.ipc_total                 0.700840                       # IPC: Total IPC of All Threads
system.switch_cpus.iq.FU_type_0::No_OpClass            3      0.00%      0.00% # Type of FU issued
system.switch_cpus.iq.FU_type_0::IntAlu        127438     59.33%     59.33% # Type of FU issued
system.switch_cpus.iq.FU_type_0::IntMult            0      0.00%     59.33% # Type of FU issued
system.switch_cpus.iq.FU_type_0::IntDiv             0      0.00%     59.33% # Type of FU issued
system.switch_cpus.iq.FU_type_0::FloatAdd            0      0.00%     59.33% # Type of FU issued
system.switch_cpus.iq.FU_type_0::FloatCmp            0      0.00%     59.33% # Type of FU issued
system.switch_cpus.iq.FU_type_0::FloatCvt            0      0.00%     59.33% # Type of FU issued
system.switch_cpus.iq.FU_type_0::FloatMult            0      0.00%     59.33% # Type of FU issued
system.switch_cpus.iq.FU_type_0::FloatMultAcc            0      0.00%     59.33% # Type of FU issued
system.switch_cpus.iq.FU_type_0::FloatDiv            0      0.00%     59.33% # Type of FU issued
system.switch_cpus.iq.FU_type_0::FloatMisc            0      0.00%     59.33% # Type of FU issued
system.switch_cpus.iq.FU_type_0::FloatSqrt            0      0.00%     59.33% # Type of FU issued
system.switch_cpus.iq.FU_type_0::SimdAdd            0      0.00%     59.33% # Type of FU issued
system.switch_cpus.iq.FU_type_0::SimdAddAcc            0      0.00%     59.33% # Type of FU issued
system.switch_cpus.iq.FU_type_0::SimdAlu            0      0.00%     59.33% # Type of FU issued
system.switch_cpus.iq.FU_type_0::SimdCmp            0      0.00%     59.33% # Type of FU issued
system.switch_cpus.iq.FU_type_0::SimdCvt            0      0.00%     59.33% # Type of FU issued
system.switch_cpus.iq.FU_type_0::SimdMisc            0      0.00%     59.33% # Type of FU issued
system.switch_cpus.iq.FU_type_0::SimdMult            0      0.00%     59.33% # Type of FU issued
system.switch_cpus.iq.FU_type_0::SimdMultAcc            0      0.00%     59.33% # Type of FU issued
system.switch_cpus.iq.FU_type_0::SimdShift            0      0.00%     59.33% # Type of FU issued
system.switch_cpus.iq.FU_type_0::SimdShiftAcc            0      0.00%     59.33% # Type of FU issued
system.switch_cpus.iq.FU_type_0::SimdDiv            0      0.00%     59.33% # Type of FU issued
system.switch_cpus.iq.FU_type_0::SimdSqrt            0      0.00%     59.33% # Type of FU issued
system.switch_cpus.iq.FU_type_0::SimdFloatAdd            0      0.00%     59.33% # Type of FU issued
system.switch_cpus.iq.FU_type_0::SimdFloatAlu            0      0.00%     59.33% # Type of FU issued
system.switch_cpus.iq.FU_type_0::SimdFloatCmp            0      0.00%     59.33% # Type of FU issued
system.switch_cpus.iq.FU_type_0::SimdFloatCvt            0      0.00%     59.33% # Type of FU issued
system.switch_cpus.iq.FU_type_0::SimdFloatDiv            0      0.00%     59.33% # Type of FU issued
system.switch_cpus.iq.FU_type_0::SimdFloatMisc            0      0.00%     59.33% # Type of FU issued
system.switch_cpus.iq.FU_type_0::SimdFloatMult            0      0.00%     59.33% # Type of FU issued
system.switch_cpus.iq.FU_type_0::SimdFloatMultAcc            0      0.00%     59.33% # Type of FU issued
system.switch_cpus.iq.FU_type_0::SimdFloatSqrt            0      0.00%     59.33% # Type of FU issued
system.switch_cpus.iq.FU_type_0::SimdReduceAdd            0      0.00%     59.33% # Type of FU issued
system.switch_cpus.iq.FU_type_0::SimdReduceAlu            0      0.00%     59.33% # Type of FU issued
system.switch_cpus.iq.FU_type_0::SimdReduceCmp            0      0.00%     59.33% # Type of FU issued
system.switch_cpus.iq.FU_type_0::SimdFloatReduceAdd            0      0.00%     59.33% # Type of FU issued
system.switch_cpus.iq.FU_type_0::SimdFloatReduceCmp            0      0.00%     59.33% # Type of FU issued
system.switch_cpus.iq.FU_type_0::SimdAes            0      0.00%     59.33% # Type of FU issued
system.switch_cpus.iq.FU_type_0::SimdAesMix            0      0.00%     59.33% # Type of FU issued
system.switch_cpus.iq.FU_type_0::SimdSha1Hash            0      0.00%     59.33% # Type of FU issued
system.switch_cpus.iq.FU_type_0::SimdSha1Hash2            0      0.00%     59.33% # Type of FU issued
system.switch_cpus.iq.FU_type_0::SimdSha256Hash            0      0.00%     59.33% # Type of FU issued
system.switch_cpus.iq.FU_type_0::SimdSha256Hash2            0      0.00%     59.33% # Type of FU issued
system.switch_cpus.iq.FU_type_0::SimdShaSigma2            0      0.00%     59.33% # Type of FU issued
system.switch_cpus.iq.FU_type_0::SimdShaSigma3            0      0.00%     59.33% # Type of FU issued
system.switch_cpus.iq.FU_type_0::SimdPredAlu            0      0.00%     59.33% # Type of FU issued
system.switch_cpus.iq.FU_type_0::MemRead        60070     27.96%     87.29% # Type of FU issued
system.switch_cpus.iq.FU_type_0::MemWrite        27299     12.71%    100.00% # Type of FU issued
system.switch_cpus.iq.FU_type_0::FloatMemRead            0      0.00%    100.00% # Type of FU issued
system.switch_cpus.iq.FU_type_0::FloatMemWrite            0      0.00%    100.00% # Type of FU issued
system.switch_cpus.iq.FU_type_0::IprAccess            0      0.00%    100.00% # Type of FU issued
system.switch_cpus.iq.FU_type_0::InstPrefetch            0      0.00%    100.00% # Type of FU issued
system.switch_cpus.iq.FU_type_0::total         214810                       # Type of FU issued
system.switch_cpus.iq.fp_alu_accesses               0                       # Number of floating point alu accesses
system.switch_cpus.iq.fp_inst_queue_reads            0                       # Number of floating instruction queue reads
system.switch_cpus.iq.fp_inst_queue_wakeup_accesses            0                       # Number of floating instruction queue wakeup accesses
system.switch_cpus.iq.fp_inst_queue_writes            0                       # Number of floating instruction queue writes
system.switch_cpus.iq.fu_busy_cnt                 624                       # FU busy when requested
system.switch_cpus.iq.fu_busy_rate           0.002905                       # FU busy rate (busy events/executed inst)
system.switch_cpus.iq.fu_full::No_OpClass            0      0.00%      0.00% # attempts to use FU when none available
system.switch_cpus.iq.fu_full::IntAlu             101     16.19%     16.19% # attempts to use FU when none available
system.switch_cpus.iq.fu_full::IntMult              0      0.00%     16.19% # attempts to use FU when none available
system.switch_cpus.iq.fu_full::IntDiv               0      0.00%     16.19% # attempts to use FU when none available
system.switch_cpus.iq.fu_full::FloatAdd             0      0.00%     16.19% # attempts to use FU when none available
system.switch_cpus.iq.fu_full::FloatCmp             0      0.00%     16.19% # attempts to use FU when none available
system.switch_cpus.iq.fu_full::FloatCvt             0      0.00%     16.19% # attempts to use FU when none available
system.switch_cpus.iq.fu_full::FloatMult            0      0.00%     16.19% # attempts to use FU when none available
system.switch_cpus.iq.fu_full::FloatMultAcc            0      0.00%     16.19% # attempts to use FU when none available
system.switch_cpus.iq.fu_full::FloatDiv             0      0.00%     16.19% # attempts to use FU when none available
system.switch_cpus.iq.fu_full::FloatMisc            0      0.00%     16.19% # attempts to use FU when none available
system.switch_cpus.iq.fu_full::FloatSqrt            0      0.00%     16.19% # attempts to use FU when none available
system.switch_cpus.iq.fu_full::SimdAdd              0      0.00%     16.19% # attempts to use FU when none available
system.switch_cpus.iq.fu_full::SimdAddAcc            0      0.00%     16.19% # attempts to use FU when none available
system.switch_cpus.iq.fu_full::SimdAlu              0      0.00%     16.19% # attempts to use FU when none available
system.switch_cpus.iq.fu_full::SimdCmp              0      0.00%     16.19% # attempts to use FU when none available
system.switch_cpus.iq.fu_full::SimdCvt              0      0.00%     16.19% # attempts to use FU when none available
system.switch_cpus.iq.fu_full::SimdMisc             0      0.00%     16.19% # attempts to use FU when none available
system.switch_cpus.iq.fu_full::SimdMult             0      0.00%     16.19% # attempts to use FU when none available
system.switch_cpus.iq.fu_full::SimdMultAcc            0      0.00%     16.19% # attempts to use FU when none available
system.switch_cpus.iq.fu_full::SimdShift            0      0.00%     16.19% # attempts to use FU when none available
system.switch_cpus.iq.fu_full::SimdShiftAcc            0      0.00%     16.19% # attempts to use FU when none available
system.switch_cpus.iq.fu_full::SimdDiv              0      0.00%     16.19% # attempts to use FU when none available
system.switch_cpus.iq.fu_full::SimdSqrt             0      0.00%     16.19% # attempts to use FU when none available
system.switch_cpus.iq.fu_full::SimdFloatAdd            0      0.00%     16.19% # attempts to use FU when none available
system.switch_cpus.iq.fu_full::SimdFloatAlu            0      0.00%     16.19% # attempts to use FU when none available
system.switch_cpus.iq.fu_full::SimdFloatCmp            0      0.00%     16.19% # attempts to use FU when none available
system.switch_cpus.iq.fu_full::SimdFloatCvt            0      0.00%     16.19% # attempts to use FU when none available
system.switch_cpus.iq.fu_full::SimdFloatDiv            0      0.00%     16.19% # attempts to use FU when none available
system.switch_cpus.iq.fu_full::SimdFloatMisc            0      0.00%     16.19% # attempts to use FU when none available
system.switch_cpus.iq.fu_full::SimdFloatMult            0      0.00%     16.19% # attempts to use FU when none available
system.switch_cpus.iq.fu_full::SimdFloatMultAcc            0      0.00%     16.19% # attempts to use FU when none available
system.switch_cpus.iq.fu_full::SimdFloatSqrt            0      0.00%     16.19% # attempts to use FU when none available
system.switch_cpus.iq.fu_full::SimdReduceAdd            0      0.00%     16.19% # attempts to use FU when none available
system.switch_cpus.iq.fu_full::SimdReduceAlu            0      0.00%     16.19% # attempts to use FU when none available
system.switch_cpus.iq.fu_full::SimdReduceCmp            0      0.00%     16.19% # attempts to use FU when none available
system.switch_cpus.iq.fu_full::SimdFloatReduceAdd            0      0.00%     16.19% # attempts to use FU when none available
system.switch_cpus.iq.fu_full::SimdFloatReduceCmp            0      0.00%     16.19% # attempts to use FU when none available
system.switch_cpus.iq.fu_full::SimdAes              0      0.00%     16.19% # attempts to use FU when none available
system.switch_cpus.iq.fu_full::SimdAesMix            0      0.00%     16.19% # attempts to use FU when none available
system.switch_cpus.iq.fu_full::SimdSha1Hash            0      0.00%     16.19% # attempts to use FU when none available
system.switch_cpus.iq.fu_full::SimdSha1Hash2            0      0.00%     16.19% # attempts to use FU when none available
system.switch_cpus.iq.fu_full::SimdSha256Hash            0      0.00%     16.19% # attempts to use FU when none available
system.switch_cpus.iq.fu_full::SimdSha256Hash2            0      0.00%     16.19% # attempts to use FU when none available
system.switch_cpus.iq.fu_full::SimdShaSigma2            0      0.00%     16.19% # attempts to use FU when none available
system.switch_cpus.iq.fu_full::SimdShaSigma3            0      0.00%     16.19% # attempts to use FU when none available
system.switch_cpus.iq.fu_full::SimdPredAlu            0      0.00%     16.19% # attempts to use FU when none available
system.switch_cpus.iq.fu_full::MemRead            399     63.94%     80.13% # attempts to use FU when none available
system.switch_cpus.iq.fu_full::MemWrite           124     19.87%    100.00% # attempts to use FU when none available
system.switch_cpus.iq.fu_full::FloatMemRead            0      0.00%    100.00% # attempts to use FU when none available
system.switch_cpus.iq.fu_full::FloatMemWrite            0      0.00%    100.00% # attempts to use FU when none available
system.switch_cpus.iq.fu_full::IprAccess            0      0.00%    100.00% # attempts to use FU when none available
system.switch_cpus.iq.fu_full::InstPrefetch            0      0.00%    100.00% # attempts to use FU when none available
system.switch_cpus.iq.int_alu_accesses         215431                       # Number of integer alu accesses
system.switch_cpus.iq.int_inst_queue_reads       572223                       # Number of integer instruction queue reads
system.switch_cpus.iq.int_inst_queue_wakeup_accesses       209204                       # Number of integer instruction queue wakeup accesses
system.switch_cpus.iq.int_inst_queue_writes       350429                       # Number of integer instruction queue writes
system.switch_cpus.iq.iqInstsAdded             260623                       # Number of instructions added to the IQ (excludes non-spec)
system.switch_cpus.iq.iqInstsIssued            214810                       # Number of instructions issued
system.switch_cpus.iq.iqSquashedInstsExamined        89511                       # Number of squashed instructions iterated over during squash; mainly for profiling
system.switch_cpus.iq.iqSquashedInstsIssued           78                       # Number of squashed instructions issued
system.switch_cpus.iq.iqSquashedOperandsExamined       173256                       # Number of squashed operands that are examined and possibly removed from graph
system.switch_cpus.iq.issued_per_cycle::samples       141901                       # Number of insts issued each cycle
system.switch_cpus.iq.issued_per_cycle::mean     1.513802                       # Number of insts issued each cycle
system.switch_cpus.iq.issued_per_cycle::stdev     1.474023                       # Number of insts issued each cycle
system.switch_cpus.iq.issued_per_cycle::underflows            0      0.00%      0.00% # Number of insts issued each cycle
system.switch_cpus.iq.issued_per_cycle::0        40402     28.47%     28.47% # Number of insts issued each cycle
system.switch_cpus.iq.issued_per_cycle::1        43306     30.52%     58.99% # Number of insts issued each cycle
system.switch_cpus.iq.issued_per_cycle::2        28455     20.05%     79.04% # Number of insts issued each cycle
system.switch_cpus.iq.issued_per_cycle::3        14361     10.12%     89.16% # Number of insts issued each cycle
system.switch_cpus.iq.issued_per_cycle::4         9232      6.51%     95.67% # Number of insts issued each cycle
system.switch_cpus.iq.issued_per_cycle::5         3610      2.54%     98.21% # Number of insts issued each cycle
system.switch_cpus.iq.issued_per_cycle::6         1560      1.10%     99.31% # Number of insts issued each cycle
system.switch_cpus.iq.issued_per_cycle::7          627      0.44%     99.75% # Number of insts issued each cycle
system.switch_cpus.iq.issued_per_cycle::8          348      0.25%    100.00% # Number of insts issued each cycle
system.switch_cpus.iq.issued_per_cycle::overflows            0      0.00%    100.00% # Number of insts issued each cycle
system.switch_cpus.iq.issued_per_cycle::min_value            0                       # Number of insts issued each cycle
system.switch_cpus.iq.issued_per_cycle::max_value            8                       # Number of insts issued each cycle
system.switch_cpus.iq.issued_per_cycle::total       141901                       # Number of insts issued each cycle
system.switch_cpus.iq.rate                   1.505474                       # Inst issue rate
system.switch_cpus.iq.vec_alu_accesses              0                       # Number of vector alu accesses
system.switch_cpus.iq.vec_inst_queue_reads            0                       # Number of vector instruction queue reads
system.switch_cpus.iq.vec_inst_queue_wakeup_accesses            0                       # Number of vector instruction queue wakeup accesses
system.switch_cpus.iq.vec_inst_queue_writes            0                       # Number of vector instruction queue writes
system.switch_cpus.itb.rdAccesses                   0                       # TLB accesses on read requests
system.switch_cpus.itb.rdMisses                     0                       # TLB misses on read requests
system.switch_cpus.itb.wrAccesses               21096                       # TLB accesses on write requests
system.switch_cpus.itb.wrMisses                     2                       # TLB misses on write requests
system.switch_cpus.memDep0.conflictingLoads        60920                       # Number of conflicting loads.
system.switch_cpus.memDep0.conflictingStores        25591                       # Number of conflicting stores.
system.switch_cpus.memDep0.insertedLoads        73422                       # Number of loads inserted to the mem dependence unit.
system.switch_cpus.memDep0.insertedStores        34975                       # Number of stores inserted to the mem dependence unit.
system.switch_cpus.misc_regfile_reads          112607                       # number of misc regfile reads
system.switch_cpus.misc_regfile_writes              1                       # number of misc regfile writes
system.switch_cpus.numCycles                   142686                       # number of cpu cycles simulated
system.switch_cpus.numWorkItemsCompleted            0                       # number of work items this cpu completed
system.switch_cpus.numWorkItemsStarted              0                       # number of work items this cpu started
system.switch_cpus.rename.BlockCycles           33583                       # Number of cycles rename is blocking
system.switch_cpus.rename.CommittedMaps        223794                       # Number of HB maps that are committed
system.switch_cpus.rename.IQFullEvents          53244                       # Number of times rename has blocked due to IQ full
system.switch_cpus.rename.IdleCycles            21091                       # Number of cycles rename is idle
system.switch_cpus.rename.LQFullEvents            548                       # Number of times rename has blocked due to LQ full
system.switch_cpus.rename.ROBFullEvents             7                       # Number of times rename has blocked due to ROB full
system.switch_cpus.rename.RenameLookups        758758                       # Number of register rename lookups that rename has made
system.switch_cpus.rename.RenamedInsts         274224                       # Number of instructions processed by rename
system.switch_cpus.rename.RenamedOperands       342622                       # Number of destination operands rename has renamed
system.switch_cpus.rename.RunCycles             30663                       # Number of cycles rename is running
system.switch_cpus.rename.SquashCycles           1856                       # Number of cycles rename is squashing
system.switch_cpus.rename.UnblockCycles         54706                       # Number of cycles rename is unblocking
system.switch_cpus.rename.UndoneMaps           118703                       # Number of HB maps that are undone due to squashing
system.switch_cpus.rename.int_rename_lookups       498158                       # Number of integer rename lookups
system.switch_cpus.rename.serializeStallCycles            0                       # count of cycles rename stalled for serializing inst
system.switch_cpus.rename.serializingInsts            0                       # count of serializing insts renamed
system.switch_cpus.rename.skidInsts            103076                       # count of insts added to the skid buffer
system.switch_cpus.rename.tempSerializingInsts            0                       # count of temporary serializing insts renamed
system.switch_cpus.rob.rob_reads               386785                       # The number of ROB reads
system.switch_cpus.rob.rob_writes              534555                       # The number of ROB writes
system.switch_cpus.timesIdled                       8                       # Number of times that the entire CPU went into an idle state and unscheduled itself
system.tol2bus.snoop_filter.hit_multi_requests            0                       # Number of requests hitting in the snoop filter with multiple (>1) holders of the requested data.
system.tol2bus.snoop_filter.hit_multi_snoops            0                       # Number of snoops hitting in the snoop filter with multiple (>1) holders of the requested data.
system.tol2bus.snoop_filter.hit_single_requests            1                       # Number of requests hitting in the snoop filter with a single holder of the requested data.
system.tol2bus.snoop_filter.hit_single_snoops            0                       # Number of snoops hitting in the snoop filter with a single holder of the requested data.
system.tol2bus.snoop_filter.tot_requests           44                       # Total number of requests made to the snoop filter.
system.tol2bus.snoop_filter.tot_snoops              0                       # Total number of snoops made to the snoop filter.
system.membus.pwrStateResidencyTicks::UNDEFINED  24384746500                       # Cumulative time (in ticks) in various power states
system.membus.trans_dist::ReadResp                 43                       # Transaction distribution
system.membus.trans_dist::ReadSharedReq            43                       # Transaction distribution
system.membus.pkt_count_system.l2.mem_side::system.mem_ctrls.port           86                       # Packet count per connected master and slave (bytes)
system.membus.pkt_count_system.l2.mem_side::total           86                       # Packet count per connected master and slave (bytes)
system.membus.pkt_count::total                     86                       # Packet count per connected master and slave (bytes)
system.membus.pkt_size_system.l2.mem_side::system.mem_ctrls.port         2752                       # Cumulative packet size per connected master and slave (bytes)
system.membus.pkt_size_system.l2.mem_side::total         2752                       # Cumulative packet size per connected master and slave (bytes)
system.membus.pkt_size::total                    2752                       # Cumulative packet size per connected master and slave (bytes)
system.membus.snoops                                0                       # Total snoops (count)
system.membus.snoopTraffic                          0                       # Total snoop traffic (bytes)
system.membus.snoop_fanout::samples                43                       # Request fanout histogram
system.membus.snoop_fanout::mean                    0                       # Request fanout histogram
system.membus.snoop_fanout::stdev                   0                       # Request fanout histogram
system.membus.snoop_fanout::underflows              0      0.00%      0.00% # Request fanout histogram
system.membus.snoop_fanout::0                      43    100.00%    100.00% # Request fanout histogram
system.membus.snoop_fanout::1                       0      0.00%    100.00% # Request fanout histogram
system.membus.snoop_fanout::overflows               0      0.00%    100.00% # Request fanout histogram
system.membus.snoop_fanout::min_value               0                       # Request fanout histogram
system.membus.snoop_fanout::max_value               0                       # Request fanout histogram
system.membus.snoop_fanout::total                  43                       # Request fanout histogram
system.membus.reqLayer2.occupancy               52500                       # Layer occupancy (ticks)
system.membus.reqLayer2.utilization               0.1                       # Layer utilization (%)
system.membus.respLayer1.occupancy             217000                       # Layer occupancy (ticks)
system.membus.respLayer1.utilization              0.3                       # Layer utilization (%)
system.switch_cpus.pwrStateResidencyTicks::OFF     71354000                       # Cumulative time (in ticks) in various power states
system.switch_cpus.dtb.walker.pwrStateResidencyTicks::UNDEFINED  24384746500                       # Cumulative time (in ticks) in various power states
system.switch_cpus.itb.walker.pwrStateResidencyTicks::UNDEFINED  24384746500                       # Cumulative time (in ticks) in various power states
system.tol2bus.pwrStateResidencyTicks::UNDEFINED  24384746500                       # Cumulative time (in ticks) in various power states
system.tol2bus.trans_dist::ReadResp                44                       # Transaction distribution
system.tol2bus.trans_dist::ReadCleanReq            29                       # Transaction distribution
system.tol2bus.trans_dist::ReadSharedReq           15                       # Transaction distribution
system.tol2bus.pkt_count_system.cpu.icache.mem_side::system.l2.cpu_side           58                       # Packet count per connected master and slave (bytes)
system.tol2bus.pkt_count_system.cpu.dcache.mem_side::system.l2.cpu_side           30                       # Packet count per connected master and slave (bytes)
system.tol2bus.pkt_count::total                    88                       # Packet count per connected master and slave (bytes)
system.tol2bus.pkt_size_system.cpu.icache.mem_side::system.l2.cpu_side         1856                       # Cumulative packet size per connected master and slave (bytes)
system.tol2bus.pkt_size_system.cpu.dcache.mem_side::system.l2.cpu_side          960                       # Cumulative packet size per connected master and slave (bytes)
system.tol2bus.pkt_size::total                   2816                       # Cumulative packet size per connected master and slave (bytes)
system.tol2bus.snoops                               0                       # Total snoops (count)
system.tol2bus.snoopTraffic                         0                       # Total snoop traffic (bytes)
system.tol2bus.snoop_fanout::samples               44                       # Request fanout histogram
system.tol2bus.snoop_fanout::mean            0.022727                       # Request fanout histogram
system.tol2bus.snoop_fanout::stdev           0.150756                       # Request fanout histogram
system.tol2bus.snoop_fanout::underflows             0      0.00%      0.00% # Request fanout histogram
system.tol2bus.snoop_fanout::0                     43     97.73%     97.73% # Request fanout histogram
system.tol2bus.snoop_fanout::1                      1      2.27%    100.00% # Request fanout histogram
system.tol2bus.snoop_fanout::2                      0      0.00%    100.00% # Request fanout histogram
system.tol2bus.snoop_fanout::3                      0      0.00%    100.00% # Request fanout histogram
system.tol2bus.snoop_fanout::4                      0      0.00%    100.00% # Request fanout histogram
system.tol2bus.snoop_fanout::overflows              0      0.00%    100.00% # Request fanout histogram
system.tol2bus.snoop_fanout::min_value              0                       # Request fanout histogram
system.tol2bus.snoop_fanout::max_value              1                       # Request fanout histogram
system.tol2bus.snoop_fanout::total                 44                       # Request fanout histogram
system.tol2bus.reqLayer0.occupancy              21000                       # Layer occupancy (ticks)
system.tol2bus.reqLayer0.utilization              0.0                       # Layer utilization (%)
system.tol2bus.respLayer1.occupancy             21000                       # Layer occupancy (ticks)
system.tol2bus.respLayer1.utilization             0.0                       # Layer utilization (%)
system.tol2bus.respLayer0.occupancy             42000                       # Layer occupancy (ticks)
system.tol2bus.respLayer0.utilization             0.1                       # Layer utilization (%)
system.voltage_domain.voltage                       1                       # Voltage in Volts
system.clk_domain.clock                          1000                       # Clock period in ticks
system.l2.pwrStateResidencyTicks::UNDEFINED  24384746500                       # Cumulative time (in ticks) in various power states
system.l2.demand_hits::.switch_cpus.data            1                       # number of demand (read+write) hits
system.l2.demand_hits::total                        1                       # number of demand (read+write) hits
system.l2.overall_hits::.switch_cpus.data            1                       # number of overall hits
system.l2.overall_hits::total                       1                       # number of overall hits
system.l2.demand_misses::.cpu.inst                  1                       # number of demand (read+write) misses
system.l2.demand_misses::.cpu.data                  1                       # number of demand (read+write) misses
system.l2.demand_misses::.switch_cpus.inst           28                       # number of demand (read+write) misses
system.l2.demand_misses::.switch_cpus.data           13                       # number of demand (read+write) misses
system.l2.demand_misses::total                     43                       # number of demand (read+write) misses
system.l2.overall_misses::.cpu.inst                 1                       # number of overall misses
system.l2.overall_misses::.cpu.data                 1                       # number of overall misses
system.l2.overall_misses::.switch_cpus.inst           28                       # number of overall misses
system.l2.overall_misses::.switch_cpus.data           13                       # number of overall misses
system.l2.overall_misses::total                    43                       # number of overall misses
system.l2.demand_miss_latency::.switch_cpus.inst      2096500                       # number of demand (read+write) miss cycles
system.l2.demand_miss_latency::.switch_cpus.data       973000                       # number of demand (read+write) miss cycles
system.l2.demand_miss_latency::total          3069500                       # number of demand (read+write) miss cycles
system.l2.overall_miss_latency::.switch_cpus.inst      2096500                       # number of overall miss cycles
system.l2.overall_miss_latency::.switch_cpus.data       973000                       # number of overall miss cycles
system.l2.overall_miss_latency::total         3069500                       # number of overall miss cycles
system.l2.demand_accesses::.cpu.inst                1                       # number of demand (read+write) accesses
system.l2.demand_accesses::.cpu.data                1                       # number of demand (read+write) accesses
system.l2.demand_accesses::.switch_cpus.inst           28                       # number of demand (read+write) accesses
system.l2.demand_accesses::.switch_cpus.data           14                       # number of demand (read+write) accesses
system.l2.demand_accesses::total                   44                       # number of demand (read+write) accesses
system.l2.overall_accesses::.cpu.inst               1                       # number of overall (read+write) accesses
system.l2.overall_accesses::.cpu.data               1                       # number of overall (read+write) accesses
system.l2.overall_accesses::.switch_cpus.inst           28                       # number of overall (read+write) accesses
system.l2.overall_accesses::.switch_cpus.data           14                       # number of overall (read+write) accesses
system.l2.overall_accesses::total                  44                       # number of overall (read+write) accesses
system.l2.demand_miss_rate::.cpu.inst               1                       # miss rate for demand accesses
system.l2.demand_miss_rate::.cpu.data               1                       # miss rate for demand accesses
system.l2.demand_miss_rate::.switch_cpus.inst            1                       # miss rate for demand accesses
system.l2.demand_miss_rate::.switch_cpus.data     0.928571                       # miss rate for demand accesses
system.l2.demand_miss_rate::total            0.977273                       # miss rate for demand accesses
system.l2.overall_miss_rate::.cpu.inst              1                       # miss rate for overall accesses
system.l2.overall_miss_rate::.cpu.data              1                       # miss rate for overall accesses
system.l2.overall_miss_rate::.switch_cpus.inst            1                       # miss rate for overall accesses
system.l2.overall_miss_rate::.switch_cpus.data     0.928571                       # miss rate for overall accesses
system.l2.overall_miss_rate::total           0.977273                       # miss rate for overall accesses
system.l2.demand_avg_miss_latency::.switch_cpus.inst        74875                       # average overall miss latency
system.l2.demand_avg_miss_latency::.switch_cpus.data 74846.153846                       # average overall miss latency
system.l2.demand_avg_miss_latency::total 71383.720930                       # average overall miss latency
system.l2.overall_avg_miss_latency::.switch_cpus.inst        74875                       # average overall miss latency
system.l2.overall_avg_miss_latency::.switch_cpus.data 74846.153846                       # average overall miss latency
system.l2.overall_avg_miss_latency::total 71383.720930                       # average overall miss latency
system.l2.blocked_cycles::no_mshrs                  0                       # number of cycles access was blocked
system.l2.blocked_cycles::no_targets                0                       # number of cycles access was blocked
system.l2.blocked::no_mshrs                         0                       # number of cycles access was blocked
system.l2.blocked::no_targets                       0                       # number of cycles access was blocked
system.l2.avg_blocked_cycles::no_mshrs            nan                       # average number of cycles each access was blocked
system.l2.avg_blocked_cycles::no_targets          nan                       # average number of cycles each access was blocked
system.l2.demand_mshr_misses::.switch_cpus.inst           28                       # number of demand (read+write) MSHR misses
system.l2.demand_mshr_misses::.switch_cpus.data           13                       # number of demand (read+write) MSHR misses
system.l2.demand_mshr_misses::total                41                       # number of demand (read+write) MSHR misses
system.l2.overall_mshr_misses::.switch_cpus.inst           28                       # number of overall MSHR misses
system.l2.overall_mshr_misses::.switch_cpus.data           13                       # number of overall MSHR misses
system.l2.overall_mshr_misses::total               41                       # number of overall MSHR misses
system.l2.demand_mshr_miss_latency::.switch_cpus.inst      1816500                       # number of demand (read+write) MSHR miss cycles
system.l2.demand_mshr_miss_latency::.switch_cpus.data       843000                       # number of demand (read+write) MSHR miss cycles
system.l2.demand_mshr_miss_latency::total      2659500                       # number of demand (read+write) MSHR miss cycles
system.l2.overall_mshr_miss_latency::.switch_cpus.inst      1816500                       # number of overall MSHR miss cycles
system.l2.overall_mshr_miss_latency::.switch_cpus.data       843000                       # number of overall MSHR miss cycles
system.l2.overall_mshr_miss_latency::total      2659500                       # number of overall MSHR miss cycles
system.l2.demand_mshr_miss_rate::.switch_cpus.inst            1                       # mshr miss rate for demand accesses
system.l2.demand_mshr_miss_rate::.switch_cpus.data     0.928571                       # mshr miss rate for demand accesses
system.l2.demand_mshr_miss_rate::total       0.931818                       # mshr miss rate for demand accesses
system.l2.overall_mshr_miss_rate::.switch_cpus.inst            1                       # mshr miss rate for overall accesses
system.l2.overall_mshr_miss_rate::.switch_cpus.data     0.928571                       # mshr miss rate for overall accesses
system.l2.overall_mshr_miss_rate::total      0.931818                       # mshr miss rate for overall accesses
system.l2.demand_avg_mshr_miss_latency::.switch_cpus.inst        64875                       # average overall mshr miss latency
system.l2.demand_avg_mshr_miss_latency::.switch_cpus.data 64846.153846                       # average overall mshr miss latency
system.l2.demand_avg_mshr_miss_latency::total 64865.853659                       # average overall mshr miss latency
system.l2.overall_avg_mshr_miss_latency::.switch_cpus.inst        64875                       # average overall mshr miss latency
system.l2.overall_avg_mshr_miss_latency::.switch_cpus.data 64846.153846                       # average overall mshr miss latency
system.l2.overall_avg_mshr_miss_latency::total 64865.853659                       # average overall mshr miss latency
system.l2.replacements                              0                       # number of replacements
system.l2.ReadCleanReq_misses::.cpu.inst            1                       # number of ReadCleanReq misses
system.l2.ReadCleanReq_misses::.switch_cpus.inst           28                       # number of ReadCleanReq misses
system.l2.ReadCleanReq_misses::total               29                       # number of ReadCleanReq misses
system.l2.ReadCleanReq_miss_latency::.switch_cpus.inst      2096500                       # number of ReadCleanReq miss cycles
system.l2.ReadCleanReq_miss_latency::total      2096500                       # number of ReadCleanReq miss cycles
system.l2.ReadCleanReq_accesses::.cpu.inst            1                       # number of ReadCleanReq accesses(hits+misses)
system.l2.ReadCleanReq_accesses::.switch_cpus.inst           28                       # number of ReadCleanReq accesses(hits+misses)
system.l2.ReadCleanReq_accesses::total             29                       # number of ReadCleanReq accesses(hits+misses)
system.l2.ReadCleanReq_miss_rate::.cpu.inst            1                       # miss rate for ReadCleanReq accesses
system.l2.ReadCleanReq_miss_rate::.switch_cpus.inst            1                       # miss rate for ReadCleanReq accesses
system.l2.ReadCleanReq_miss_rate::total             1                       # miss rate for ReadCleanReq accesses
system.l2.ReadCleanReq_avg_miss_latency::.switch_cpus.inst        74875                       # average ReadCleanReq miss latency
system.l2.ReadCleanReq_avg_miss_latency::total 72293.103448                       # average ReadCleanReq miss latency
system.l2.ReadCleanReq_mshr_misses::.switch_cpus.inst           28                       # number of ReadCleanReq MSHR misses
system.l2.ReadCleanReq_mshr_misses::total           28                       # number of ReadCleanReq MSHR misses
system.l2.ReadCleanReq_mshr_miss_latency::.switch_cpus.inst      1816500                       # number of ReadCleanReq MSHR miss cycles
system.l2.ReadCleanReq_mshr_miss_latency::total      1816500                       # number of ReadCleanReq MSHR miss cycles
system.l2.ReadCleanReq_mshr_miss_rate::.switch_cpus.inst            1                       # mshr miss rate for ReadCleanReq accesses
system.l2.ReadCleanReq_mshr_miss_rate::total     0.965517                       # mshr miss rate for ReadCleanReq accesses
system.l2.ReadCleanReq_avg_mshr_miss_latency::.switch_cpus.inst        64875                       # average ReadCleanReq mshr miss latency
system.l2.ReadCleanReq_avg_mshr_miss_latency::total        64875                       # average ReadCleanReq mshr miss latency
system.l2.ReadSharedReq_hits::.switch_cpus.data            1                       # number of ReadSharedReq hits
system.l2.ReadSharedReq_hits::total                 1                       # number of ReadSharedReq hits
system.l2.ReadSharedReq_misses::.cpu.data            1                       # number of ReadSharedReq misses
system.l2.ReadSharedReq_misses::.switch_cpus.data           13                       # number of ReadSharedReq misses
system.l2.ReadSharedReq_misses::total              14                       # number of ReadSharedReq misses
system.l2.ReadSharedReq_miss_latency::.switch_cpus.data       973000                       # number of ReadSharedReq miss cycles
system.l2.ReadSharedReq_miss_latency::total       973000                       # number of ReadSharedReq miss cycles
system.l2.ReadSharedReq_accesses::.cpu.data            1                       # number of ReadSharedReq accesses(hits+misses)
system.l2.ReadSharedReq_accesses::.switch_cpus.data           14                       # number of ReadSharedReq accesses(hits+misses)
system.l2.ReadSharedReq_accesses::total            15                       # number of ReadSharedReq accesses(hits+misses)
system.l2.ReadSharedReq_miss_rate::.cpu.data            1                       # miss rate for ReadSharedReq accesses
system.l2.ReadSharedReq_miss_rate::.switch_cpus.data     0.928571                       # miss rate for ReadSharedReq accesses
system.l2.ReadSharedReq_miss_rate::total     0.933333                       # miss rate for ReadSharedReq accesses
system.l2.ReadSharedReq_avg_miss_latency::.switch_cpus.data 74846.153846                       # average ReadSharedReq miss latency
system.l2.ReadSharedReq_avg_miss_latency::total        69500                       # average ReadSharedReq miss latency
system.l2.ReadSharedReq_mshr_misses::.switch_cpus.data           13                       # number of ReadSharedReq MSHR misses
system.l2.ReadSharedReq_mshr_misses::total           13                       # number of ReadSharedReq MSHR misses
system.l2.ReadSharedReq_mshr_miss_latency::.switch_cpus.data       843000                       # number of ReadSharedReq MSHR miss cycles
system.l2.ReadSharedReq_mshr_miss_latency::total       843000                       # number of ReadSharedReq MSHR miss cycles
system.l2.ReadSharedReq_mshr_miss_rate::.switch_cpus.data     0.928571                       # mshr miss rate for ReadSharedReq accesses
system.l2.ReadSharedReq_mshr_miss_rate::total     0.866667                       # mshr miss rate for ReadSharedReq accesses
system.l2.ReadSharedReq_avg_mshr_miss_latency::.switch_cpus.data 64846.153846                       # average ReadSharedReq mshr miss latency
system.l2.ReadSharedReq_avg_mshr_miss_latency::total 64846.153846                       # average ReadSharedReq mshr miss latency
system.l2.tags.pwrStateResidencyTicks::UNDEFINED  24384746500                       # Cumulative time (in ticks) in various power states
system.l2.tags.tagsinuse                    41.206036                       # Cycle average of tags in use
system.l2.tags.total_refs                           0                       # Total number of references to valid blocks.
system.l2.tags.sampled_refs                         0                       # Sample count of references to valid blocks.
system.l2.tags.avg_refs                           nan                       # Average number of references to valid blocks.
system.l2.tags.warmup_cycle               24313393000                       # Cycle when the warmup percentage was hit.
system.l2.tags.occ_blocks::.cpu.inst         0.999993                       # Average occupied blocks per requestor
system.l2.tags.occ_blocks::.cpu.data         0.999993                       # Average occupied blocks per requestor
system.l2.tags.occ_blocks::.switch_cpus.inst    26.688805                       # Average occupied blocks per requestor
system.l2.tags.occ_blocks::.switch_cpus.data    12.517245                       # Average occupied blocks per requestor
system.l2.tags.occ_percent::.cpu.inst        0.000031                       # Average percentage of cache occupancy
system.l2.tags.occ_percent::.cpu.data        0.000031                       # Average percentage of cache occupancy
system.l2.tags.occ_percent::.switch_cpus.inst     0.000814                       # Average percentage of cache occupancy
system.l2.tags.occ_percent::.switch_cpus.data     0.000382                       # Average percentage of cache occupancy
system.l2.tags.occ_percent::total            0.001258                       # Average percentage of cache occupancy
system.l2.tags.occ_task_id_blocks::1024            43                       # Occupied blocks per task id
system.l2.tags.age_task_id_blocks_1024::1           43                       # Occupied blocks per task id
system.l2.tags.occ_task_id_percent::1024     0.001312                       # Percentage of cache occupancy per task id
system.l2.tags.tag_accesses                       395                       # Number of tag accesses
[...]
system.cpu.icache.ReadReq_mshr_miss_latency::total      2138500                       # number of ReadReq MSHR miss cycles
system.cpu.icache.ReadReq_mshr_miss_rate::.switch_cpus.inst     0.000160                       # mshr miss rate for ReadReq accesses
system.cpu.icache.ReadReq_mshr_miss_rate::total     0.000160                       # mshr miss rate for ReadReq accesses
system.cpu.icache.ReadReq_avg_mshr_miss_latency::.switch_cpus.inst        76375                       # average ReadReq mshr miss latency
system.cpu.icache.ReadReq_avg_mshr_miss_latency::total        76375                       # average ReadReq mshr miss latency
system.cpu.icache.tags.pwrStateResidencyTicks::UNDEFINED  25018190000                       # Cumulative time (in ticks) in various power states
system.cpu.icache.tags.tagsinuse             0.813219                       # Cycle average of tags in use
system.cpu.icache.tags.total_refs              175316                       # Total number of references to valid blocks.
system.cpu.icache.tags.sampled_refs                29                       # Sample count of references to valid blocks.
system.cpu.icache.tags.avg_refs           6045.379310                       # Average number of references to valid blocks.
system.cpu.icache.tags.warmup_cycle       24313393000                       # Cycle when the warmup percentage was hit.
system.cpu.icache.tags.occ_blocks::.cpu.inst     0.028171                       # Average occupied blocks per requestor
system.cpu.icache.tags.occ_blocks::.switch_cpus.inst     0.785048                       # Average occupied blocks per requestor
system.cpu.icache.tags.occ_percent::.cpu.inst     0.000055                       # Average percentage of cache occupancy
system.cpu.icache.tags.occ_percent::.switch_cpus.inst     0.001533                       # Average percentage of cache occupancy
system.cpu.icache.tags.occ_percent::total     0.001588                       # Average percentage of cache occupancy
system.cpu.icache.tags.occ_task_id_blocks::1024           29                       # Occupied blocks per task id
system.cpu.icache.tags.age_task_id_blocks_1024::2           29                       # Occupied blocks per task id
system.cpu.icache.tags.occ_task_id_percent::1024     0.056641                       # Percentage of cache occupancy per task id
system.cpu.icache.tags.tag_accesses            350739                       # Number of tag accesses
system.cpu.icache.tags.data_accesses           350739                       # Number of data accesses
system.cpu.dtb.walker.pwrStateResidencyTicks::UNDEFINED  25018190000                       # Cumulative time (in ticks) in various power states
system.cpu.interrupts.clk_domain.clock           8000                       # Clock period in ticks
system.cpu.itb_walker_cache.pwrStateResidencyTicks::UNDEFINED  25018190000                       # Cumulative time (in ticks) in various power states
system.cpu.itb_walker_cache.blocked_cycles::no_mshrs            0                       # number of cycles access was blocked
system.cpu.itb_walker_cache.blocked_cycles::no_targets            0                       # number of cycles access was blocked
system.cpu.itb_walker_cache.blocked::no_mshrs            0                       # number of cycles access was blocked
system.cpu.itb_walker_cache.blocked::no_targets            0                       # number of cycles access was blocked
system.cpu.itb_walker_cache.avg_blocked_cycles::no_mshrs          nan                       # average number of cycles each access was blocked
system.cpu.itb_walker_cache.avg_blocked_cycles::no_targets          nan                       # average number of cycles each access was blocked
system.cpu.itb_walker_cache.replacements            0                       # number of replacements
system.cpu.itb_walker_cache.tags.pwrStateResidencyTicks::UNDEFINED  25018190000                       # Cumulative time (in ticks) in various power states
system.cpu.itb_walker_cache.tags.tagsinuse            0                       # Cycle average of tags in use
system.cpu.itb_walker_cache.tags.total_refs            0                       # Total number of references to valid blocks.
system.cpu.itb_walker_cache.tags.sampled_refs            0                       # Sample count of references to valid blocks.
system.cpu.itb_walker_cache.tags.avg_refs          nan                       # Average number of references to valid blocks.
system.cpu.itb_walker_cache.tags.warmup_cycle            0                       # Cycle when the warmup percentage was hit.
system.cpu.itb_walker_cache.tags.tag_accesses            0                       # Number of tag accesses
system.cpu.itb_walker_cache.tags.data_accesses            0                       # Number of data accesses
system.cpu.itb.walker.pwrStateResidencyTicks::UNDEFINED  25018190000                       # Cumulative time (in ticks) in various power states
system.cpu.dtb_walker_cache.pwrStateResidencyTicks::UNDEFINED  25018190000                       # Cumulative time (in ticks) in various power states
system.cpu.dtb_walker_cache.blocked_cycles::no_mshrs            0                       # number of cycles access was blocked
system.cpu.dtb_walker_cache.blocked_cycles::no_targets            0                       # number of cycles access was blocked
system.cpu.dtb_walker_cache.blocked::no_mshrs            0                       # number of cycles access was blocked
system.cpu.dtb_walker_cache.blocked::no_targets            0                       # number of cycles access was blocked
system.cpu.dtb_walker_cache.avg_blocked_cycles::no_mshrs          nan                       # average number of cycles each access was blocked
system.cpu.dtb_walker_cache.avg_blocked_cycles::no_targets          nan                       # average number of cycles each access was blocked
system.cpu.dtb_walker_cache.replacements            0                       # number of replacements
system.cpu.dtb_walker_cache.tags.pwrStateResidencyTicks::UNDEFINED  25018190000                       # Cumulative time (in ticks) in various power states
system.cpu.dtb_walker_cache.tags.tagsinuse            0                       # Cycle average of tags in use
system.cpu.dtb_walker_cache.tags.total_refs            0                       # Total number of references to valid blocks.
system.cpu.dtb_walker_cache.tags.sampled_refs            0                       # Sample count of references to valid blocks.
system.cpu.dtb_walker_cache.tags.avg_refs          nan                       # Average number of references to valid blocks.
system.cpu.dtb_walker_cache.tags.warmup_cycle            0                       # Cycle when the warmup percentage was hit.
system.cpu.dtb_walker_cache.tags.tag_accesses            0                       # Number of tag accesses
system.cpu.dtb_walker_cache.tags.data_accesses            0                       # Number of data accesses
system.cpu.dcache.pwrStateResidencyTicks::UNDEFINED  25018190000                       # Cumulative time (in ticks) in various power states
system.cpu.dcache.demand_hits::.cpu.data           10                       # number of demand (read+write) hits
system.cpu.dcache.demand_hits::.switch_cpus.data       588633                       # number of demand (read+write) hits
system.cpu.dcache.demand_hits::total           588643                       # number of demand (read+write) hits
system.cpu.dcache.overall_hits::.cpu.data           10                       # number of overall hits
system.cpu.dcache.overall_hits::.switch_cpus.data       588633                       # number of overall hits
system.cpu.dcache.overall_hits::total          588643                       # number of overall hits
system.cpu.dcache.demand_misses::.cpu.data            1                       # number of demand (read+write) misses
system.cpu.dcache.demand_misses::.switch_cpus.data           33                       # number of demand (read+write) misses
system.cpu.dcache.demand_misses::total             34                       # number of demand (read+write) misses
system.cpu.dcache.overall_misses::.cpu.data            1                       # number of overall misses
system.cpu.dcache.overall_misses::.switch_cpus.data           33                       # number of overall misses
system.cpu.dcache.overall_misses::total            34                       # number of overall misses
system.cpu.dcache.demand_miss_latency::.switch_cpus.data      1915000                       # number of demand (read+write) miss cycles
system.cpu.dcache.demand_miss_latency::total      1915000                       # number of demand (read+write) miss cycles
system.cpu.dcache.overall_miss_latency::.switch_cpus.data      1915000                       # number of overall miss cycles
system.cpu.dcache.overall_miss_latency::total      1915000                       # number of overall miss cycles
system.cpu.dcache.demand_accesses::.cpu.data           11                       # number of demand (read+write) accesses
system.cpu.dcache.demand_accesses::.switch_cpus.data       588666                       # number of demand (read+write) accesses
system.cpu.dcache.demand_accesses::total       588677                       # number of demand (read+write) accesses
system.cpu.dcache.overall_accesses::.cpu.data           11                       # number of overall (read+write) accesses
system.cpu.dcache.overall_accesses::.switch_cpus.data       588666                       # number of overall (read+write) accesses
system.cpu.dcache.overall_accesses::total       588677                       # number of overall (read+write) accesses
system.cpu.dcache.demand_miss_rate::.cpu.data     0.090909                       # miss rate for demand accesses
system.cpu.dcache.demand_miss_rate::.switch_cpus.data     0.000056                       # miss rate for demand accesses
system.cpu.dcache.demand_miss_rate::total     0.000058                       # miss rate for demand accesses
system.cpu.dcache.overall_miss_rate::.cpu.data     0.090909                       # miss rate for overall accesses
system.cpu.dcache.overall_miss_rate::.switch_cpus.data     0.000056                       # miss rate for overall accesses
system.cpu.dcache.overall_miss_rate::total     0.000058                       # miss rate for overall accesses
system.cpu.dcache.demand_avg_miss_latency::.switch_cpus.data 58030.303030                       # average overall miss latency
system.cpu.dcache.demand_avg_miss_latency::total 56323.529412                       # average overall miss latency
system.cpu.dcache.overall_avg_miss_latency::.switch_cpus.data 58030.303030                       # average overall miss latency
system.cpu.dcache.overall_avg_miss_latency::total 56323.529412                       # average overall miss latency
system.cpu.dcache.blocked_cycles::no_mshrs            0                       # number of cycles access was blocked
system.cpu.dcache.blocked_cycles::no_targets            0                       # number of cycles access was blocked
system.cpu.dcache.blocked::no_mshrs                 0                       # number of cycles access was blocked
system.cpu.dcache.blocked::no_targets               0                       # number of cycles access was blocked
system.cpu.dcache.avg_blocked_cycles::no_mshrs          nan                       # average number of cycles each access was blocked
system.cpu.dcache.avg_blocked_cycles::no_targets          nan                       # average number of cycles each access was blocked
system.cpu.dcache.demand_mshr_hits::.switch_cpus.data           19                       # number of demand (read+write) MSHR hits
system.cpu.dcache.demand_mshr_hits::total           19                       # number of demand (read+write) MSHR hits
system.cpu.dcache.overall_mshr_hits::.switch_cpus.data           19                       # number of overall MSHR hits
system.cpu.dcache.overall_mshr_hits::total           19                       # number of overall MSHR hits
system.cpu.dcache.demand_mshr_misses::.switch_cpus.data           14                       # number of demand (read+write) MSHR misses
system.cpu.dcache.demand_mshr_misses::total           14                       # number of demand (read+write) MSHR misses
system.cpu.dcache.overall_mshr_misses::.switch_cpus.data           14                       # number of overall MSHR misses
system.cpu.dcache.overall_mshr_misses::total           14                       # number of overall MSHR misses
system.cpu.dcache.demand_mshr_miss_latency::.switch_cpus.data      1006000                       # number of demand (read+write) MSHR miss cycles
system.cpu.dcache.demand_mshr_miss_latency::total      1006000                       # number of demand (read+write) MSHR miss cycles
system.cpu.dcache.overall_mshr_miss_latency::.switch_cpus.data      1006000                       # number of overall MSHR miss cycles
system.cpu.dcache.overall_mshr_miss_latency::total      1006000                       # number of overall MSHR miss cycles
system.cpu.dcache.demand_mshr_miss_rate::.switch_cpus.data     0.000024                       # mshr miss rate for demand accesses
system.cpu.dcache.demand_mshr_miss_rate::total     0.000024                       # mshr miss rate for demand accesses
system.cpu.dcache.overall_mshr_miss_rate::.switch_cpus.data     0.000024                       # mshr miss rate for overall accesses
system.cpu.dcache.overall_mshr_miss_rate::total     0.000024                       # mshr miss rate for overall accesses
system.cpu.dcache.demand_avg_mshr_miss_latency::.switch_cpus.data 71857.142857                       # average overall mshr miss latency
system.cpu.dcache.demand_avg_mshr_miss_latency::total 71857.142857                       # average overall mshr miss latency
system.cpu.dcache.overall_avg_mshr_miss_latency::.switch_cpus.data 71857.142857                       # average overall mshr miss latency
system.cpu.dcache.overall_avg_mshr_miss_latency::total 71857.142857                       # average overall mshr miss latency
system.cpu.dcache.replacements                      0                       # number of replacements
system.cpu.dcache.ReadReq_hits::.cpu.data            6                       # number of ReadReq hits
system.cpu.dcache.ReadReq_hits::.switch_cpus.data       322723                       # number of ReadReq hits
system.cpu.dcache.ReadReq_hits::total          322729                       # number of ReadReq hits
system.cpu.dcache.ReadReq_misses::.cpu.data            1                       # number of ReadReq misses
system.cpu.dcache.ReadReq_misses::.switch_cpus.data           33                       # number of ReadReq misses
system.cpu.dcache.ReadReq_misses::total            34                       # number of ReadReq misses
system.cpu.dcache.ReadReq_miss_latency::.switch_cpus.data      1915000                       # number of ReadReq miss cycles
system.cpu.dcache.ReadReq_miss_latency::total      1915000                       # number of ReadReq miss cycles
system.cpu.dcache.ReadReq_accesses::.cpu.data            7                       # number of ReadReq accesses(hits+misses)
system.cpu.dcache.ReadReq_accesses::.switch_cpus.data       322756                       # number of ReadReq accesses(hits+misses)
system.cpu.dcache.ReadReq_accesses::total       322763                       # number of ReadReq accesses(hits+misses)
system.cpu.dcache.ReadReq_miss_rate::.cpu.data     0.142857                       # miss rate for ReadReq accesses
system.cpu.dcache.ReadReq_miss_rate::.switch_cpus.data     0.000102                       # miss rate for ReadReq accesses
system.cpu.dcache.ReadReq_miss_rate::total     0.000105                       # miss rate for ReadReq accesses
system.cpu.dcache.ReadReq_avg_miss_latency::.switch_cpus.data 58030.303030                       # average ReadReq miss latency
system.cpu.dcache.ReadReq_avg_miss_latency::total 56323.529412                       # average ReadReq miss latency
system.cpu.dcache.ReadReq_mshr_hits::.switch_cpus.data           19                       # number of ReadReq MSHR hits
system.cpu.dcache.ReadReq_mshr_hits::total           19                       # number of ReadReq MSHR hits
system.cpu.dcache.ReadReq_mshr_misses::.switch_cpus.data           14                       # number of ReadReq MSHR misses
system.cpu.dcache.ReadReq_mshr_misses::total           14                       # number of ReadReq MSHR misses
system.cpu.dcache.ReadReq_mshr_miss_latency::.switch_cpus.data      1006000                       # number of ReadReq MSHR miss cycles
system.cpu.dcache.ReadReq_mshr_miss_latency::total      1006000                       # number of ReadReq MSHR miss cycles
system.cpu.dcache.ReadReq_mshr_miss_rate::.switch_cpus.data     0.000043                       # mshr miss rate for ReadReq accesses
system.cpu.dcache.ReadReq_mshr_miss_rate::total     0.000043                       # mshr miss rate for ReadReq accesses
system.cpu.dcache.ReadReq_avg_mshr_miss_latency::.switch_cpus.data 71857.142857                       # average ReadReq mshr miss latency
system.cpu.dcache.ReadReq_avg_mshr_miss_latency::total 71857.142857                       # average ReadReq mshr miss latency
system.cpu.dcache.WriteReq_hits::.cpu.data            4                       # number of WriteReq hits
system.cpu.dcache.WriteReq_hits::.switch_cpus.data       265910                       # number of WriteReq hits
system.cpu.dcache.WriteReq_hits::total         265914                       # number of WriteReq hits
system.cpu.dcache.WriteReq_accesses::.cpu.data            4                       # number of WriteReq accesses(hits+misses)
system.cpu.dcache.WriteReq_accesses::.switch_cpus.data       265910                       # number of WriteReq accesses(hits+misses)
system.cpu.dcache.WriteReq_accesses::total       265914                       # number of WriteReq accesses(hits+misses)
system.cpu.dcache.tags.pwrStateResidencyTicks::UNDEFINED  25018190000                       # Cumulative time (in ticks) in various power states
system.cpu.dcache.tags.tagsinuse             0.421155                       # Cycle average of tags in use
system.cpu.dcache.tags.total_refs              588658                       # Total number of references to valid blocks.
system.cpu.dcache.tags.sampled_refs                15                       # Sample count of references to valid blocks.
system.cpu.dcache.tags.avg_refs          39243.866667                       # Average number of references to valid blocks.
system.cpu.dcache.tags.warmup_cycle       24313393000                       # Cycle when the warmup percentage was hit.
system.cpu.dcache.tags.occ_blocks::.cpu.data     0.028171                       # Average occupied blocks per requestor
system.cpu.dcache.tags.occ_blocks::.switch_cpus.data     0.392984                       # Average occupied blocks per requestor
system.cpu.dcache.tags.occ_percent::.cpu.data     0.000028                       # Average percentage of cache occupancy
system.cpu.dcache.tags.occ_percent::.switch_cpus.data     0.000384                       # Average percentage of cache occupancy
system.cpu.dcache.tags.occ_percent::total     0.000411                       # Average percentage of cache occupancy
system.cpu.dcache.tags.occ_task_id_blocks::1024           15                       # Occupied blocks per task id
system.cpu.dcache.tags.age_task_id_blocks_1024::2           15                       # Occupied blocks per task id
system.cpu.dcache.tags.occ_task_id_percent::1024     0.014648                       # Percentage of cache occupancy per task id
system.cpu.dcache.tags.tag_accesses           1177369                       # Number of tag accesses
system.cpu.dcache.tags.data_accesses          1177369                       # Number of data accesses

---------- End Simulation Statistics   ----------
