
---------- Begin Simulation Statistics ----------
final_tick                                      95000                       # Number of ticks from beginning of simulation (restored from checkpoints and never reset)
host_inst_rate                                     12                       # Simulator instruction rate (inst/s)
host_mem_usage                                 688040                       # Number of bytes of host memory used
host_op_rate                                       43                       # Simulator op (including micro ops) rate (op/s)
host_seconds                                     0.16                       # Real time elapsed on the host
host_tick_rate                                 582269                       # Simulator tick rate (ticks/s)
sim_freq                                 1000000000000                       # Frequency of simulated ticks
sim_insts                                           2                       # Number of instructions simulated
sim_ops                                             7                       # Number of ops (including micro ops) simulated
sim_seconds                                  0.000000                       # Number of seconds simulated
sim_ticks                                       95000                       # Number of ticks simulated
system.cpu.Branches                                 1                       # Number of branches fetched
system.cpu.committedInsts                           1                       # Number of instructions committed
system.cpu.committedOps                             5                       # Number of ops (including micro ops) committed
system.cpu.dtb.rdAccesses                           0                       # TLB accesses on read requests
system.cpu.dtb.rdMisses                             0                       # TLB misses on read requests
system.cpu.dtb.wrAccesses                           1                       # TLB accesses on write requests
system.cpu.dtb.wrMisses                             1                       # TLB misses on write requests
system.cpu.idle_fraction                            0                       # Percentage of idle cycles
system.cpu.itb.rdAccesses                           0                       # TLB accesses on read requests
system.cpu.itb.rdMisses                             0                       # TLB misses on read requests
system.cpu.itb.wrAccesses                           1                       # TLB accesses on write requests
system.cpu.itb.wrMisses                             0                       # TLB misses on write requests
system.cpu.not_idle_fraction                        1                       # Percentage of non-idle cycles
system.cpu.numCycles                                5                       # number of cpu cycles simulated
system.cpu.numWorkItemsCompleted                    0                       # number of work items this cpu completed
system.cpu.numWorkItemsStarted                      0                       # number of work items this cpu started
system.cpu.num_busy_cycles                          5                       # Number of busy cycles
system.cpu.num_conditional_control_insts            0                       # number of instructions that are conditional controls
system.cpu.num_fp_alu_accesses                      0                       # Number of float alu accesses
system.cpu.num_fp_insts                             0                       # number of float instructions
system.cpu.num_fp_register_reads                    0                       # number of times the floating registers were read
system.cpu.num_fp_register_writes                   0                       # number of times the floating registers were written
system.cpu.num_func_calls                           1                       # number of times a function call or return occured
system.cpu.num_idle_cycles                          0                       # Number of idle cycles
system.cpu.num_int_alu_accesses                     5                       # Number of integer alu accesses
system.cpu.num_int_insts                            5                       # number of integer instructions
system.cpu.num_int_register_reads                   9                       # number of times the integer registers were read
system.cpu.num_int_register_writes                  3                       # number of times the integer registers were written
system.cpu.num_load_insts                           0                       # Number of load instructions
system.cpu.num_mem_refs                             1                       # number of memory refs
system.cpu.num_store_insts                          1                       # Number of store instructions
system.cpu.num_vec_alu_accesses                     0                       # Number of vector alu accesses
system.cpu.num_vec_insts                            0                       # number of vector instructions
system.cpu.num_vec_register_reads                   0                       # number of times the vector registers were read
system.cpu.num_vec_register_writes                  0                       # number of times the vector registers were written
system.cpu.op_class::No_OpClass                     0      0.00%      0.00% # Class of executed instruction
system.cpu.op_class::IntAlu                         4     80.00%     80.00% # Class of executed instruction
system.cpu.op_class::IntMult                        0      0.00%     80.00% # Class of executed instruction
system.cpu.op_class::IntDiv                         0      0.00%     80.00% # Class of executed instruction
system.cpu.op_class::FloatAdd                       0      0.00%     80.00% # Class of executed instruction
system.cpu.op_class::FloatCmp                       0      0.00%     80.00% # Class of executed instruction
system.cpu.op_class::FloatCvt                       0      0.00%     80.00% # Class of executed instruction
system.cpu.op_class::FloatMult                      0      0.00%     80.00% # Class of executed instruction
system.cpu.op_class::FloatMultAcc                   0      0.00%     80.00% # Class of executed instruction
system.cpu.op_class::FloatDiv                       0      0.00%     80.00% # Class of executed instruction
system.cpu.op_class::FloatMisc                      0      0.00%     80.00% # Class of executed instruction
system.cpu.op_class::FloatSqrt                      0      0.00%     80.00% # Class of executed instruction
system.cpu.op_class::SimdAdd                        0      0.00%     80.00% # Class of executed instruction
system.cpu.op_class::SimdAddAcc                     0      0.00%     80.00% # Class of executed instruction
system.cpu.op_class::SimdAlu                        0      0.00%     80.00% # Class of executed instruction
system.cpu.op_class::SimdCmp                        0      0.00%     80.00% # Class of executed instruction
system.cpu.op_class::SimdCvt                        0      0.00%     80.00% # Class of executed instruction
system.cpu.op_class::SimdMisc                       0      0.00%     80.00% # Class of executed instruction
system.cpu.op_class::SimdMult                       0      0.00%     80.00% # Class of executed instruction
system.cpu.op_class::SimdMultAcc                    0      0.00%     80.00% # Class of executed instruction
system.cpu.op_class::SimdShift                      0      0.00%     80.00% # Class of executed instruction
system.cpu.op_class::SimdShiftAcc                   0      0.00%     80.00% # Class of executed instruction
system.cpu.op_class::SimdDiv                        0      0.00%     80.00% # Class of executed instruction
system.cpu.op_class::SimdSqrt                       0      0.00%     80.00% # Class of executed instruction
system.cpu.op_class::SimdFloatAdd                   0      0.00%     80.00% # Class of executed instruction
system.cpu.op_class::SimdFloatAlu                   0      0.00%     80.00% # Class of executed instruction
system.cpu.op_class::SimdFloatCmp                   0      0.00%     80.00% # Class of executed instruction
system.cpu.op_class::SimdFloatCvt                   0      0.00%     80.00% # Class of executed instruction
system.cpu.op_class::SimdFloatDiv                   0      0.00%     80.00% # Class of executed instruction
system.cpu.op_class::SimdFloatMisc                  0      0.00%     80.00% # Class of executed instruction
system.cpu.op_class::SimdFloatMult                  0      0.00%     80.00% # Class of executed instruction
system.cpu.op_class::SimdFloatMultAcc               0      0.00%     80.00% # Class of executed instruction
system.cpu.op_class::SimdFloatSqrt                  0      0.00%     80.00% # Class of executed instruction
system.cpu.op_class::SimdReduceAdd                  0      0.00%     80.00% # Class of executed instruction
system.cpu.op_class::SimdReduceAlu                  0      0.00%     80.00% # Class of executed instruction
system.cpu.op_class::SimdReduceCmp                  0      0.00%     80.00% # Class of executed instruction
system.cpu.op_class::SimdFloatReduceAdd             0      0.00%     80.00% # Class of executed instruction
system.cpu.op_class::SimdFloatReduceCmp             0      0.00%     80.00% # Class of executed instruction
system.cpu.op_class::SimdAes                        0      0.00%     80.00% # Class of executed instruction
system.cpu.op_class::SimdAesMix                     0      0.00%     80.00% # Class of executed instruction
system.cpu.op_class::SimdSha1Hash                   0      0.00%     80.00% # Class of executed instruction
system.cpu.op_class::SimdSha1Hash2                  0      0.00%     80.00% # Class of executed instruction
system.cpu.op_class::SimdSha256Hash                 0      0.00%     80.00% # Class of executed instruction
system.cpu.op_class::SimdSha256Hash2                0      0.00%     80.00% # Class of executed instruction
system.cpu.op_class::SimdShaSigma2                  0      0.00%     80.00% # Class of executed instruction
system.cpu.op_class::SimdShaSigma3                  0      0.00%     80.00% # Class of executed instruction
system.cpu.op_class::SimdPredAlu                    0      0.00%     80.00% # Class of executed instruction
system.cpu.op_class::MemRead                        0      0.00%     80.00% # Class of executed instruction
system.cpu.op_class::MemWrite                       1     20.00%    100.00% # Class of executed instruction
system.cpu.op_class::FloatMemRead                   0      0.00%    100.00% # Class of executed instruction
system.cpu.op_class::FloatMemWrite                  0      0.00%    100.00% # Class of executed instruction
system.cpu.op_class::IprAccess                      0      0.00%    100.00% # Class of executed instruction
system.cpu.op_class::InstPrefetch                   0      0.00%    100.00% # Class of executed instruction
system.cpu.op_class::total                          5                       # Class of executed instruction
system.cpu.workload.numSyscalls                     0                       # Number of system calls
system.membus.snoop_filter.hit_multi_requests            0                       # Number of requests hitting in the snoop filter with multiple (>1) holders of the requested data.
system.membus.snoop_filter.hit_multi_snoops            0                       # Number of snoops hitting in the snoop filter with multiple (>1) holders of the requested data.
system.membus.snoop_filter.hit_single_requests            0                       # Number of requests hitting in the snoop filter with a single holder of the requested data.
system.membus.snoop_filter.hit_single_snoops            0                       # Number of snoops hitting in the snoop filter with a single holder of the requested data.
system.membus.snoop_filter.tot_requests             3                       # Total number of requests made to the snoop filter.
system.membus.snoop_filter.tot_snoops               0                       # Total number of snoops made to the snoop filter.
system.switch_cpus.branchPred.BTBCorrect            0                       # Number of correct BTB predictions (this stat may not work properly.
system.switch_cpus.branchPred.BTBHitPct           nan                       # BTB Hit Percentage
system.switch_cpus.branchPred.BTBHits               0                       # Number of BTB hits
system.switch_cpus.branchPred.BTBLookups            0                       # Number of BTB lookups
system.switch_cpus.branchPred.RASInCorrect            0                       # Number of incorrect RAS predictions.
system.switch_cpus.branchPred.condIncorrect            0                       # Number of conditional branches incorrect
system.switch_cpus.branchPred.condPredicted            0                       # Number of conditional branches predicted
system.switch_cpus.branchPred.indirectHits            0                       # Number of indirect target hits.
system.switch_cpus.branchPred.indirectLookups            0                       # Number of indirect predictor lookups.
system.switch_cpus.branchPred.indirectMisses            0                       # Number of indirect misses.
system.switch_cpus.branchPred.lookups               0                       # Number of BP lookups
system.switch_cpus.branchPred.usedRAS               0                       # Number of times the RAS was used to get a target.
system.switch_cpus.branchPredindirectMispredicted            0                       # Number of mispredicted indirect branches.
system.switch_cpus.cc_regfile_writes                5                       # number of cc regfile writes
system.switch_cpus.commit.amos                      0                       # Number of atomic instructions committed
system.switch_cpus.commit.branches                  0                       # Number of branches committed
system.switch_cpus.commit.bw_lim_events             0                       # number cycles where commit BW limit reached
system.switch_cpus.commit.committedInsts            1                       # Number of instructions committed
system.switch_cpus.commit.committedOps              2                       # Number of ops (including micro ops) committed
system.switch_cpus.commit.committed_per_cycle::samples          185                       # Number of insts commited each cycle
system.switch_cpus.commit.committed_per_cycle::mean     0.010811                       # Number of insts commited each cycle
system.switch_cpus.commit.committed_per_cycle::stdev     0.147043                       # Number of insts commited each cycle
system.switch_cpus.commit.committed_per_cycle::underflows            0      0.00%      0.00% # Number of insts commited each cycle
system.switch_cpus.commit.committed_per_cycle::0          184     99.46%     99.46% # Number of insts commited each cycle
system.switch_cpus.commit.committed_per_cycle::1            0      0.00%     99.46% # Number of insts commited each cycle
system.switch_cpus.commit.committed_per_cycle::2            1      0.54%    100.00% # Number of insts commited each cycle
system.switch_cpus.commit.committed_per_cycle::3            0      0.00%    100.00% # Number of insts commited each cycle
system.switch_cpus.commit.committed_per_cycle::4            0      0.00%    100.00% # Number of insts commited each cycle
system.switch_cpus.commit.committed_per_cycle::5            0      0.00%    100.00% # Number of insts commited each cycle
system.switch_cpus.commit.committed_per_cycle::6            0      0.00%    100.00% # Number of insts commited each cycle
system.switch_cpus.commit.committed_per_cycle::7            0      0.00%    100.00% # Number of insts commited each cycle
system.switch_cpus.commit.committed_per_cycle::8            0      0.00%    100.00% # Number of insts commited each cycle
system.switch_cpus.commit.committed_per_cycle::overflows            0      0.00%    100.00% # Number of insts commited each cycle
system.switch_cpus.commit.committed_per_cycle::min_value            0                       # Number of insts commited each cycle
system.switch_cpus.commit.committed_per_cycle::max_value            2                       # Number of insts commited each cycle
system.switch_cpus.commit.committed_per_cycle::total          185                       # Number of insts commited each cycle
system.switch_cpus.commit.fp_insts                  0                       # Number of committed floating point instructions.
system.switch_cpus.commit.function_calls            0                       # Number of function calls committed.
system.switch_cpus.commit.int_insts                 2                       # Number of committed integer instructions.
system.switch_cpus.commit.loads                     0                       # Number of loads committed
system.switch_cpus.commit.membars                   0                       # Number of memory barriers committed
system.switch_cpus.commit.op_class_0::No_OpClass            0      0.00%      0.00% # Class of committed instruction
system.switch_cpus.commit.op_class_0::IntAlu            1     50.00%     50.00% # Class of committed instruction
system.switch_cpus.commit.op_class_0::IntMult            0      0.00%     50.00% # Class of committed instruction
system.switch_cpus.commit.op_class_0::IntDiv            0      0.00%     50.00% # Class of committed instruction
system.switch_cpus.commit.op_class_0::FloatAdd            0      0.00%     50.00% # Class of committed instruction
system.switch_cpus.commit.op_class_0::FloatCmp            0      0.00%     50.00% # Class of committed instruction
system.switch_cpus.commit.op_class_0::FloatCvt            0      0.00%     50.00% # Class of committed instruction
system.switch_cpus.commit.op_class_0::FloatMult            0      0.00%     50.00% # Class of committed instruction
system.switch_cpus.commit.op_class_0::FloatMultAcc            0      0.00%     50.00% # Class of committed instruction
system.switch_cpus.commit.op_class_0::FloatDiv            0      0.00%     50.00% # Class of committed instruction
system.switch_cpus.commit.op_class_0::FloatMisc            0      0.00%     50.00% # Class of committed instruction
system.switch_cpus.commit.op_class_0::FloatSqrt            0      0.00%     50.00% # Class of committed instruction
system.switch_cpus.commit.op_class_0::SimdAdd            0      0.00%     50.00% # Class of committed instruction
system.switch_cpus.commit.op_class_0::SimdAddAcc            0      0.00%     50.00% # Class of committed instruction
system.switch_cpus.commit.op_class_0::SimdAlu            0      0.00%     50.00% # Class of committed instruction
system.switch_cpus.commit.op_class_0::SimdCmp            0      0.00%     50.00% # Class of committed instruction
system.switch_cpus.commit.op_class_0::SimdCvt            0      0.00%     50.00% # Class of committed instruction
system.switch_cpus.commit.op_class_0::SimdMisc            0      0.00%     50.00% # Class of committed instruction
system.switch_cpus.commit.op_class_0::SimdMult            0      0.00%     50.00% # Class of committed instruction
system.switch_cpus.commit.op_class_0::SimdMultAcc            0      0.00%     50.00% # Class of committed instruction
system.switch_cpus.commit.op_class_0::SimdShift            0      0.00%     50.00% # Class of committed instruction
system.switch_cpus.commit.op_class_0::SimdShiftAcc            0      0.00%     50.00% # Class of committed instruction
system.switch_cpus.commit.op_class_0::SimdDiv            0      0.00%     50.00% # Class of committed instruction
system.switch_cpus.commit.op_class_0::SimdSqrt            0      0.00%     50.00% # Class of committed instruction
system.switch_cpus.commit.op_class_0::SimdFloatAdd            0      0.00%     50.00% # Class of committed instruction
system.switch_cpus.commit.op_class_0::SimdFloatAlu            0      0.00%     50.00% # Class of committed instruction
system.switch_cpus.commit.op_class_0::SimdFloatCmp            0      0.00%     50.00% # Class of committed instruction
system.switch_cpus.commit.op_class_0::SimdFloatCvt            0      0.00%     50.00% # Class of committed instruction
system.switch_cpus.commit.op_class_0::SimdFloatDiv            0      0.00%     50.00% # Class of committed instruction
system.switch_cpus.commit.op_class_0::SimdFloatMisc            0      0.00%     50.00% # Class of committed instruction
system.switch_cpus.commit.op_class_0::SimdFloatMult            0      0.00%     50.00% # Class of committed instruction
system.switch_cpus.commit.op_class_0::SimdFloatMultAcc            0      0.00%     50.00% # Class of committed instruction
system.switch_cpus.commit.op_class_0::SimdFloatSqrt            0      0.00%     50.00% # Class of committed instruction
system.switch_cpus.commit.op_class_0::SimdReduceAdd            0      0.00%     50.00% # Class of committed instruction
system.switch_cpus.commit.op_class_0::SimdReduceAlu            0      0.00%     50.00% # Class of committed instruction
system.switch_cpus.commit.op_class_0::SimdReduceCmp            0      0.00%     50.00% # Class of committed instruction
system.switch_cpus.commit.op_class_0::SimdFloatReduceAdd            0      0.00%     50.00% # Class of committed instruction
system.switch_cpus.commit.op_class_0::SimdFloatReduceCmp            0      0.00%     50.00% # Class of committed instruction
system.switch_cpus.commit.op_class_0::SimdAes            0      0.00%     50.00% # Class of committed instruction
system.switch_cpus.commit.op_class_0::SimdAesMix            0      0.00%     50.00% # Class of committed instruction
system.switch_cpus.commit.op_class_0::SimdSha1Hash            0      0.00%     50.00% # Class of committed instruction
system.switch_cpus.commit.op_class_0::SimdSha1Hash2            0      0.00%     50.00% # Class of committed instruction
system.switch_cpus.commit.op_class_0::SimdSha256Hash            0      0.00%     50.00% # Class of committed instruction
system.switch_cpus.commit.op_class_0::SimdSha256Hash2            0      0.00%     50.00% # Class of committed instruction
system.switch_cpus.commit.op_class_0::SimdShaSigma2            0      0.00%     50.00% # Class of committed instruction
system.switch_cpus.commit.op_class_0::SimdShaSigma3            0      0.00%     50.00% # Class of committed instruction
system.switch_cpus.commit.op_class_0::SimdPredAlu            0      0.00%     50.00% # Class of committed instruction
system.switch_cpus.commit.op_class_0::MemRead            0      0.00%     50.00% # Class of committed instruction
system.switch_cpus.commit.op_class_0::MemWrite            1     50.00%    100.00% # Class of committed instruction
system.switch_cpus.commit.op_class_0::FloatMemRead            0      0.00%    100.00% # Class of committed instruction
system.switch_cpus.commit.op_class_0::FloatMemWrite            0      0.00%    100.00% # Class of committed instruction
system.switch_cpus.commit.op_class_0::IprAccess            0      0.00%    100.00% # Class of committed instruction
system.switch_cpus.commit.op_class_0::InstPrefetch            0      0.00%    100.00% # Class of committed instruction
system.switch_cpus.commit.op_class_0::total            2                       # Class of committed instruction
system.switch_cpus.commit.refs                      1                       # Number of memory references committed
system.switch_cpus.commit.swp_count                 0                       # Number of s/w prefetches committed
system.switch_cpus.commit.vec_insts                 0                       # Number of committed Vector instructions.
system.switch_cpus.committedInsts                   1                       # Number of Instructions Simulated
system.switch_cpus.committedOps                     2                       # Number of Ops (including micro ops) Simulated
system.switch_cpus.cpi                     185.000000                       # CPI: Cycles Per Instruction
system.switch_cpus.cpi_total               185.000000                       # CPI: Total CPI of All Threads
system.switch_cpus.decode.BlockedCycles             3                       # Number of cycles decode is blocked
system.switch_cpus.decode.DecodedInsts             22                       # Number of instructions handled by decode
system.switch_cpus.decode.IdleCycles              179                       # Number of cycles decode is idle
system.switch_cpus.dtb.rdAccesses                   0                       # TLB accesses on read requests
system.switch_cpus.dtb.rdMisses                     0                       # TLB misses on read requests
system.switch_cpus.dtb.wrAccesses                   3                       # TLB accesses on write requests
system.switch_cpus.dtb.wrMisses                     1                       # TLB misses on write requests
system.switch_cpus.fetch.CacheLines                 2                       # Number of cache lines fetched
system.switch_cpus.fetch.Cycles                     3                       # Number of cycles fetch has run and was not squashing or blocked
system.switch_cpus.fetch.Insts                     13                       # Number of instructions fetch has processed
system.switch_cpus.fetch.branchRate                 0                       # Number of branch fetches per cycle
system.switch_cpus.fetch.icacheStallCycles          182                       # Number of cycles fetch is stalled on an Icache miss
system.switch_cpus.fetch.rate                0.070270                       # Number of inst fetches per cycle
system.switch_cpus.fetch.rateDist::samples          185                       # Number of instructions fetched each cycle (Total)
system.switch_cpus.fetch.rateDist::mean      0.118919                       # Number of instructions fetched each cycle (Total)
system.switch_cpus.fetch.rateDist::stdev     0.936529                       # Number of instructions fetched each cycle (Total)
system.switch_cpus.fetch.rateDist::underflows            0      0.00%      0.00% # Number of instructions fetched each cycle (Total)
system.switch_cpus.fetch.rateDist::0              182     98.38%     98.38% # Number of instructions fetched each cycle (Total)
system.switch_cpus.fetch.rateDist::1                0      0.00%     98.38% # Number of instructions fetched each cycle (Total)
system.switch_cpus.fetch.rateDist::2                0      0.00%     98.38% # Number of instructions fetched each cycle (Total)
system.switch_cpus.fetch.rateDist::3                0      0.00%     98.38% # Number of instructions fetched each cycle (Total)
system.switch_cpus.fetch.rateDist::4                0      0.00%     98.38% # Number of instructions fetched each cycle (Total)
system.switch_cpus.fetch.rateDist::5                0      0.00%     98.38% # Number of instructions fetched each cycle (Total)
system.switch_cpus.fetch.rateDist::6                1      0.54%     98.92% # Number of instructions fetched each cycle (Total)
system.switch_cpus.fetch.rateDist::7                0      0.00%     98.92% # Number of instructions fetched each cycle (Total)
system.switch_cpus.fetch.rateDist::8                2      1.08%    100.00% # Number of instructions fetched each cycle (Total)
system.switch_cpus.fetch.rateDist::overflows            0      0.00%    100.00% # Number of instructions fetched each cycle (Total)
system.switch_cpus.fetch.rateDist::min_value            0                       # Number of instructions fetched each cycle (Total)
system.switch_cpus.fetch.rateDist::max_value            8                       # Number of instructions fetched each cycle (Total)
system.switch_cpus.fetch.rateDist::total          185                       # Number of instructions fetched each cycle (Total)
system.switch_cpus.fp_regfile_writes               56                       # number of floating regfile writes
system.switch_cpus.iew.branchMispredicts            0                       # Number of branch mispredicts detected at execute
system.switch_cpus.iew.exec_branches                0                       # Number of branches executed
system.switch_cpus.iew.exec_nop                     0                       # number of nop insts executed
system.switch_cpus.iew.exec_rate             0.048649                       # Inst execution rate
system.switch_cpus.iew.exec_refs                    3                       # number of memory reference insts executed
system.switch_cpus.iew.exec_stores                  3                       # Number of stores executed
system.switch_cpus.iew.exec_swp                     0                       # number of swp insts executed
system.switch_cpus.iew.iewBlockCycles               0                       # Number of cycles IEW is blocking
system.switch_cpus.iew.iewDispLoadInsts             0                       # Number of dispatched load instructions
system.switch_cpus.iew.iewDispNonSpecInsts            0                       # Number of dispatched non-speculative instructions
system.switch_cpus.iew.iewDispSquashedInsts            0                       # Number of squashed instructions skipped by dispatch
system.switch_cpus.iew.iewDispStoreInsts            6                       # Number of dispatched store instructions
system.switch_cpus.iew.iewDispatchedInsts           16                       # Number of instructions dispatched to IQ
system.switch_cpus.iew.iewExecLoadInsts             0                       # Number of load instructions executed
system.switch_cpus.iew.iewExecSquashedInsts            0                       # Number of squashed instructions skipped in execute
system.switch_cpus.iew.iewExecutedInsts             9                       # Number of executed instructions
system.switch_cpus.iew.iewIQFullEvents              0                       # Number of times the IQ has become full, causing a stall
system.switch_cpus.iew.iewIdleCycles                0                       # Number of cycles IEW is idle
system.switch_cpus.iew.iewLSQFullEvents             0                       # Number of times the LSQ has become full, causing a stall
system.switch_cpus.iew.iewSquashCycles              0                       # Number of cycles IEW is squashing
system.switch_cpus.iew.iewUnblockCycles             0                       # Number of cycles IEW is unblocking
system.switch_cpus.iew.lsq.thread0.blockedLoads            0                       # Number of blocked loads due to partial load-store forwarding
system.switch_cpus.iew.lsq.thread0.cacheBlocked            0                       # Number of times an access to memory failed due to the cache being blocked
system.switch_cpus.iew.lsq.thread0.forwLoads            0                       # Number of loads that had data forwarded from stores
system.switch_cpus.iew.lsq.thread0.ignoredResponses            0                       # Number of memory responses ignored because the instruction is squashed
system.switch_cpus.iew.lsq.thread0.invAddrLoads            0                       # Number of loads ignored due to an invalid address
system.switch_cpus.iew.lsq.thread0.invAddrSwpfs            0                       # Number of software prefetches ignored due to an invalid address
system.switch_cpus.iew.lsq.thread0.memOrderViolation            0                       # Number of memory ordering violations
system.switch_cpus.iew.lsq.thread0.rescheduledLoads            0                       # Number of loads that were rescheduled
system.switch_cpus.iew.lsq.thread0.squashedLoads            0                       # Number of loads squashed
system.switch_cpus.iew.lsq.thread0.squashedStores            0                       # Number of stores squashed
system.switch_cpus.iew.memOrderViolationEvents            0                       # Number of memory order violations
system.switch_cpus.iew.predictedNotTakenIncorrect            0                       # Number of branches that were predicted not taken incorrectly
system.switch_cpus.iew.predictedTakenIncorrect            0                       # Number of branches that were predicted taken incorrectly
system.switch_cpus.iew.wb_consumers                 8                       # num instructions consuming a value
system.switch_cpus.iew.wb_count                     9                       # cumulative count of insts written-back
system.switch_cpus.iew.wb_fanout             0.500000                       # average fanout of values written-back
system.switch_cpus.iew.wb_producers                 4                       # num instructions producing a value
system.switch_cpus.iew.wb_rate               0.048649                       # insts written-back per cycle
system.switch_cpus.iew.wb_sent                      9                       # cumulative count of insts sent to commit
system.switch_cpus.int_regfile_reads               18                       # number of integer regfile reads
system.switch_cpus.int_regfile_writes              44                       # number of integer regfile writes
system.switch_cpus.ipc                       0.005405                       # IPC: Instructions Per Cycle
system.switch_cpus.ipc_total                 0.005405                       # IPC: Total IPC of All Threads
system.switch_cpus.iq.FU_type_0::No_OpClass            0      0.00%      0.00% # Type of FU issued
system.switch_cpus.iq.FU_type_0::IntAlu             7     63.64%     63.64% # Type of FU issued
system.switch_cpus.iq.FU_type_0::IntMult            0      0.00%     63.64% # Type of FU issued
system.switch_cpus.iq.FU_type_0::IntDiv             0      0.00%     63.64% # Type of FU issued
system.switch_cpus.iq.FU_type_0::FloatAdd            0      0.00%     63.64% # Type of FU issued
system.switch_cpus.iq.FU_type_0::FloatCmp            0      0.00%     63.64% # Type of FU issued
system.switch_cpus.iq.FU_type_0::FloatCvt            0      0.00%     63.64% # Type of FU issued
system.switch_cpus.iq.FU_type_0::FloatMult            0      0.00%     63.64% # Type of FU issued
system.switch_cpus.iq.FU_type_0::FloatMultAcc            0      0.00%     63.64% # Type of FU issued
system.switch_cpus.iq.FU_type_0::FloatDiv            0      0.00%     63.64% # Type of FU issued
system.switch_cpus.iq.FU_type_0::FloatMisc            0      0.00%     63.64% # Type of FU issued
system.switch_cpus.iq.FU_type_0::FloatSqrt            0      0.00%     63.64% # Type of FU issued
system.switch_cpus.iq.FU_type_0::SimdAdd            0      0.00%     63.64% # Type of FU issued
system.switch_cpus.iq.FU_type_0::SimdAddAcc            0      0.00%     63.64% # Type of FU issued
system.switch_cpus.iq.FU_type_0::SimdAlu            0      0.00%     63.64% # Type of FU issued
system.switch_cpus.iq.FU_type_0::SimdCmp            0      0.00%     63.64% # Type of FU issued
system.switch_cpus.iq.FU_type_0::SimdCvt            0      0.00%     63.64% # Type of FU issued
system.switch_cpus.iq.FU_type_0::SimdMisc            0      0.00%     63.64% # Type of FU issued
system.switch_cpus.iq.FU_type_0::SimdMult            0      0.00%     63.64% # Type of FU issued
system.switch_cpus.iq.FU_type_0::SimdMultAcc            0      0.00%     63.64% # Type of FU issued
system.switch_cpus.iq.FU_type_0::SimdShift            0      0.00%     63.64% # Type of FU issued
system.switch_cpus.iq.FU_type_0::SimdShiftAcc            0      0.00%     63.64% # Type of FU issued
system.switch_cpus.iq.FU_type_0::SimdDiv            0      0.00%     63.64% # Type of FU issued
system.switch_cpus.iq.FU_type_0::SimdSqrt            0      0.00%     63.64% # Type of FU issued
system.switch_cpus.iq.FU_type_0::SimdFloatAdd            0      0.00%     63.64% # Type of FU issued
system.switch_cpus.iq.FU_type_0::SimdFloatAlu            0      0.00%     63.64% # Type of FU issued
system.switch_cpus.iq.FU_type_0::SimdFloatCmp            0      0.00%     63.64% # Type of FU issued
system.switch_cpus.iq.FU_type_0::SimdFloatCvt            0      0.00%     63.64% # Type of FU issued
system.switch_cpus.iq.FU_type_0::SimdFloatDiv            0      0.00%     63.64% # Type of FU issued
system.switch_cpus.iq.FU_type_0::SimdFloatMisc            0      0.00%     63.64% # Type of FU issued
system.switch_cpus.iq.FU_type_0::SimdFloatMult            0      0.00%     63.64% # Type of FU issued
system.switch_cpus.iq.FU_type_0::SimdFloatMultAcc            0      0.00%     63.64% # Type of FU issued
system.switch_cpus.iq.FU_type_0::SimdFloatSqrt            0      0.00%     63.64% # Type of FU issued
system.switch_cpus.iq.FU_type_0::SimdReduceAdd            0      0.00%     63.64% # Type of FU issued
system.switch_cpus.iq.FU_type_0::SimdReduceAlu            0      0.00%     63.64% # Type of FU issued
system.switch_cpus.iq.FU_type_0::SimdReduceCmp            0      0.00%     63.64% # Type of FU issued
system.switch_cpus.iq.FU_type_0::SimdFloatReduceAdd            0      0.00%     63.64% # Type of FU issued
system.switch_cpus.iq.FU_type_0::SimdFloatReduceCmp            0      0.00%     63.64% # Type of FU issued
system.switch_cpus.iq.FU_type_0::SimdAes            0      0.00%     63.64% # Type of FU issued
system.switch_cpus.iq.FU_type_0::SimdAesMix            0      0.00%     63.64% # Type of FU issued
system.switch_cpus.iq.FU_type_0::SimdSha1Hash            0      0.00%     63.64% # Type of FU issued
system.switch_cpus.iq.FU_type_0::SimdSha1Hash2            0      0.00%     63.64% # Type of FU issued
system.switch_cpus.iq.FU_type_0::SimdSha256Hash            0      0.00%     63.64% # Type of FU issued
system.switch_cpus.iq.FU_type_0::SimdSha256Hash2            0      0.00%     63.64% # Type of FU issued
system.switch_cpus.iq.FU_type_0::SimdShaSigma2            0      0.00%     63.64% # Type of FU issued
system.switch_cpus.iq.FU_type_0::SimdShaSigma3            0      0.00%     63.64% # Type of FU issued
system.switch_cpus.iq.FU_type_0::SimdPredAlu            0      0.00%     63.64% # Type of FU issued
system.switch_cpus.iq.FU_type_0::MemRead            0      0.00%     63.64% # Type of FU issued
system.switch_cpus.iq.FU_type_0::MemWrite            4     36.36%    100.00% # Type of FU issued
system.switch_cpus.iq.FU_type_0::FloatMemRead            0      0.00%    100.00% # Type of FU issued
system.switch_cpus.iq.FU_type_0::FloatMemWrite            0      0.00%    100.00% # Type of FU issued
system.switch_cpus.iq.FU_type_0::IprAccess            0      0.00%    100.00% # Type of FU issued
system.switch_cpus.iq.FU_type_0::InstPrefetch            0      0.00%    100.00% # Type of FU issued
system.switch_cpus.iq.FU_type_0::total             11                       # Type of FU issued
system.switch_cpus.iq.fp_alu_accesses               0                       # Number of floating point alu accesses
system.switch_cpus.iq.fp_inst_queue_reads            0                       # Number of floating instruction queue reads
system.switch_cpus.iq.fp_inst_queue_wakeup_accesses            0                       # Number of floating instruction queue wakeup accesses
system.switch_cpus.iq.fp_inst_queue_writes            0                       # Number of floating instruction queue writes
system.switch_cpus.iq.fu_busy_cnt                   0                       # FU busy when requested
system.switch_cpus.iq.fu_busy_rate                  0                       # FU busy rate (busy events/executed inst)
system.switch_cpus.iq.fu_full::No_OpClass            0                       # attempts to use FU when none available
system.switch_cpus.iq.fu_full::IntAlu               0                       # attempts to use FU when none available
system.switch_cpus.iq.fu_full::IntMult              0                       # attempts to use FU when none available
system.switch_cpus.iq.fu_full::IntDiv               0                       # attempts to use FU when none available
system.switch_cpus.iq.fu_full::FloatAdd             0                       # attempts to use FU when none available
system.switch_cpus.iq.fu_full::FloatCmp             0                       # attempts to use FU when none available
system.switch_cpus.iq.fu_full::FloatCvt             0                       # attempts to use FU when none available
system.switch_cpus.iq.fu_full::FloatMult            0                       # attempts to use FU when none available
system.switch_cpus.iq.fu_full::FloatMultAcc            0                       # attempts to use FU when none available
system.switch_cpus.iq.fu_full::FloatDiv             0                       # attempts to use FU when none available
system.switch_cpus.iq.fu_full::FloatMisc            0                       # attempts to use FU when none available
system.switch_cpus.iq.fu_full::FloatSqrt            0                       # attempts to use FU when none available
system.switch_cpus.iq.fu_full::SimdAdd              0                       # attempts to use FU when none available
system.switch_cpus.iq.fu_full::SimdAddAcc            0                       # attempts to use FU when none available
system.switch_cpus.iq.fu_full::SimdAlu              0                       # attempts to use FU when none available
system.switch_cpus.iq.fu_full::SimdCmp              0                       # attempts to use FU when none available
system.switch_cpus.iq.fu_full::SimdCvt              0                       # attempts to use FU when none available
system.switch_cpus.iq.fu_full::SimdMisc             0                       # attempts to use FU when none available
system.switch_cpus.iq.fu_full::SimdMult             0                       # attempts to use FU when none available
system.switch_cpus.iq.fu_full::SimdMultAcc            0                       # attempts to use FU when none available
system.switch_cpus.iq.fu_full::SimdShift            0                       # attempts to use FU when none available
system.switch_cpus.iq.fu_full::SimdShiftAcc            0                       # attempts to use FU when none available
system.switch_cpus.iq.fu_full::SimdDiv              0                       # attempts to use FU when none available
system.switch_cpus.iq.fu_full::SimdSqrt             0                       # attempts to use FU when none available
system.switch_cpus.iq.fu_full::SimdFloatAdd            0                       # attempts to use FU when none available
system.switch_cpus.iq.fu_full::SimdFloatAlu            0                       # attempts to use FU when none available
system.switch_cpus.iq.fu_full::SimdFloatCmp            0                       # attempts to use FU when none available
system.switch_cpus.iq.fu_full::SimdFloatCvt            0                       # attempts to use FU when none available
system.switch_cpus.iq.fu_full::SimdFloatDiv            0                       # attempts to use FU when none available
system.switch_cpus.iq.fu_full::SimdFloatMisc            0                       # attempts to use FU when none available
system.switch_cpus.iq.fu_full::SimdFloatMult            0                       # attempts to use FU when none available
system.switch_cpus.iq.fu_full::SimdFloatMultAcc            0                       # attempts to use FU when none available
system.switch_cpus.iq.fu_full::SimdFloatSqrt            0                       # attempts to use FU when none available
system.switch_cpus.iq.fu_full::SimdReduceAdd            0                       # attempts to use FU when none available
system.switch_cpus.iq.fu_full::SimdReduceAlu            0                       # attempts to use FU when none available
system.switch_cpus.iq.fu_full::SimdReduceCmp            0                       # attempts to use FU when none available
system.switch_cpus.iq.fu_full::SimdFloatReduceAdd            0                       # attempts to use FU when none available
system.switch_cpus.iq.fu_full::SimdFloatReduceCmp            0                       # attempts to use FU when none available
system.switch_cpus.iq.fu_full::SimdAes              0                       # attempts to use FU when none available
system.switch_cpus.iq.fu_full::SimdAesMix            0                       # attempts to use FU when none available
system.switch_cpus.iq.fu_full::SimdSha1Hash            0                       # attempts to use FU when none available
system.switch_cpus.iq.fu_full::SimdSha1Hash2            0                       # attempts to use FU when none available
system.switch_cpus.iq.fu_full::SimdSha256Hash            0                       # attempts to use FU when none available
system.switch_cpus.iq.fu_full::SimdSha256Hash2            0                       # attempts to use FU when none available
system.switch_cpus.iq.fu_full::SimdShaSigma2            0                       # attempts to use FU when none available
system.switch_cpus.iq.fu_full::SimdShaSigma3            0                       # attempts to use FU when none available
system.switch_cpus.iq.fu_full::SimdPredAlu            0                       # attempts to use FU when none available
system.switch_cpus.iq.fu_full::MemRead              0                       # attempts to use FU when none available
system.switch_cpus.iq.fu_full::MemWrite             0                       # attempts to use FU when none available
system.switch_cpus.iq.fu_full::FloatMemRead            0                       # attempts to use FU when none available
system.switch_cpus.iq.fu_full::FloatMemWrite            0                       # attempts to use FU when none available
system.switch_cpus.iq.fu_full::IprAccess            0                       # attempts to use FU when none available
system.switch_cpus.iq.fu_full::InstPrefetch            0                       # attempts to use FU when none available
system.switch_cpus.iq.int_alu_accesses             11                       # Number of integer alu accesses
system.switch_cpus.iq.int_inst_queue_reads          205                       # Number of integer instruction queue reads
system.switch_cpus.iq.int_inst_queue_wakeup_accesses            9                       # Number of integer instruction queue wakeup accesses
system.switch_cpus.iq.int_inst_queue_writes           16                       # Number of integer instruction queue writes
system.switch_cpus.iq.iqInstsAdded                 16                       # Number of instructions added to the IQ (excludes non-spec)
system.switch_cpus.iq.iqInstsIssued                11                       # Number of instructions issued
system.switch_cpus.iq.issued_per_cycle::samples          185                       # Number of insts issued each cycle
system.switch_cpus.iq.issued_per_cycle::mean     0.059459                       # Number of insts issued each cycle
system.switch_cpus.iq.issued_per_cycle::stdev     0.444446                       # Number of insts issued each cycle
system.switch_cpus.iq.issued_per_cycle::underflows            0      0.00%      0.00% # Number of insts issued each cycle
system.switch_cpus.iq.issued_per_cycle::0          181     97.84%     97.84% # Number of insts issued each cycle
system.switch_cpus.iq.issued_per_cycle::1            0      0.00%     97.84% # Number of insts issued each cycle
system.switch_cpus.iq.issued_per_cycle::2            3      1.62%     99.46% # Number of insts issued each cycle
system.switch_cpus.iq.issued_per_cycle::3            0      0.00%     99.46% # Number of insts issued each cycle
system.switch_cpus.iq.issued_per_cycle::4            0      0.00%     99.46% # Number of insts issued each cycle
system.switch_cpus.iq.issued_per_cycle::5            1      0.54%    100.00% # Number of insts issued each cycle
system.switch_cpus.iq.issued_per_cycle::6            0      0.00%    100.00% # Number of insts issued each cycle
system.switch_cpus.iq.issued_per_cycle::7            0      0.00%    100.00% # Number of insts issued each cycle
system.switch_cpus.iq.issued_per_cycle::8            0      0.00%    100.00% # Number of insts issued each cycle
system.switch_cpus.iq.issued_per_cycle::overflows            0      0.00%    100.00% # Number of insts issued each cycle
system.switch_cpus.iq.issued_per_cycle::min_value            0                       # Number of insts issued each cycle
system.switch_cpus.iq.issued_per_cycle::max_value            5                       # Number of insts issued each cycle
system.switch_cpus.iq.issued_per_cycle::total          185                       # Number of insts issued each cycle
system.switch_cpus.iq.rate                   0.059459                       # Inst issue rate
system.switch_cpus.iq.vec_alu_accesses              0                       # Number of vector alu accesses
system.switch_cpus.iq.vec_inst_queue_reads            0                       # Number of vector instruction queue reads
system.switch_cpus.iq.vec_inst_queue_wakeup_accesses            0                       # Number of vector instruction queue wakeup accesses
system.switch_cpus.iq.vec_inst_queue_writes            0                       # Number of vector instruction queue writes
system.switch_cpus.itb.rdAccesses                   0                       # TLB accesses on read requests
system.switch_cpus.itb.rdMisses                     0                       # TLB misses on read requests
system.switch_cpus.itb.wrAccesses                   2                       # TLB accesses on write requests
system.switch_cpus.itb.wrMisses                     1                       # TLB misses on write requests
system.switch_cpus.memDep0.conflictingLoads            0                       # Number of conflicting loads.
system.switch_cpus.memDep0.conflictingStores            0                       # Number of conflicting stores.
system.switch_cpus.memDep0.insertedLoads            0                       # Number of loads inserted to the mem dependence unit.
system.switch_cpus.memDep0.insertedStores            6                       # Number of stores inserted to the mem dependence unit.
system.switch_cpus.misc_regfile_reads               3                       # number of misc regfile reads
system.switch_cpus.misc_regfile_writes              1                       # number of misc regfile writes
system.switch_cpus.numCycles                      185                       # number of cpu cycles simulated
system.switch_cpus.numWorkItemsCompleted            0                       # number of work items this cpu completed
system.switch_cpus.numWorkItemsStarted              0                       # number of work items this cpu started
system.switch_cpus.rename.IdleCycles              179                       # Number of cycles rename is idle
system.switch_cpus.rename.RenameLookups            38                       # Number of register rename lookups that rename has made
system.switch_cpus.rename.RenamedInsts             16                       # Number of instructions processed by rename
system.switch_cpus.rename.RenamedOperands           12                       # Number of destination operands rename has renamed
system.switch_cpus.rename.RunCycles                 0                       # Number of cycles rename is running
system.switch_cpus.rename.int_rename_lookups           32                       # Number of integer rename lookups
system.switch_cpus.rename.serializeStallCycles            3                       # count of cycles rename stalled for serializing inst
system.switch_cpus.rename.serializingInsts            1                       # count of serializing insts renamed
system.switch_cpus.rename.skidInsts                 5                       # count of insts added to the skid buffer
system.switch_cpus.rename.tempSerializingInsts            0                       # count of temporary serializing insts renamed
system.switch_cpus.rob.rob_reads                  187                       # The number of ROB reads
system.switch_cpus.rob.rob_writes                  18                       # The number of ROB writes
system.tol2bus.snoop_filter.hit_multi_requests            0                       # Number of requests hitting in the snoop filter with multiple (>1) holders of the requested data.
system.tol2bus.snoop_filter.hit_multi_snoops            0                       # Number of snoops hitting in the snoop filter with multiple (>1) holders of the requested data.
system.tol2bus.snoop_filter.hit_single_requests            0                       # Number of requests hitting in the snoop filter with a single holder of the requested data.
system.tol2bus.snoop_filter.hit_single_snoops            0                       # Number of snoops hitting in the snoop filter with a single holder of the requested data.
system.tol2bus.snoop_filter.tot_requests            4                       # Total number of requests made to the snoop filter.
system.tol2bus.snoop_filter.tot_snoops              0                       # Total number of snoops made to the snoop filter.
system.membus.pwrStateResidencyTicks::UNDEFINED        95000                       # Cumulative time (in ticks) in various power states
system.membus.trans_dist::ReadResp                  2                       # Transaction distribution
system.membus.trans_dist::ReadExReq                 1                       # Transaction distribution
system.membus.trans_dist::ReadExResp                1                       # Transaction distribution
system.membus.trans_dist::ReadSharedReq             2                       # Transaction distribution
system.membus.pkt_count_system.l2.mem_side::system.mem_ctrls.port            6                       # Packet count per connected master and slave (bytes)
system.membus.pkt_count_system.l2.mem_side::total            6                       # Packet count per connected master and slave (bytes)
system.membus.pkt_count::total                      6                       # Packet count per connected master and slave (bytes)
system.membus.pkt_size_system.l2.mem_side::system.mem_ctrls.port          192                       # Cumulative packet size per connected master and slave (bytes)
system.membus.pkt_size_system.l2.mem_side::total          192                       # Cumulative packet size per connected master and slave (bytes)
system.membus.pkt_size::total                     192                       # Cumulative packet size per connected master and slave (bytes)
system.membus.snoops                                0                       # Total snoops (count)
system.membus.snoopTraffic                          0                       # Total snoop traffic (bytes)
system.membus.snoop_fanout::samples                 3                       # Request fanout histogram
system.membus.snoop_fanout::mean                    0                       # Request fanout histogram
system.membus.snoop_fanout::stdev                   0                       # Request fanout histogram
system.membus.snoop_fanout::underflows              0      0.00%      0.00% # Request fanout histogram
system.membus.snoop_fanout::0                       3    100.00%    100.00% # Request fanout histogram
system.membus.snoop_fanout::1                       0      0.00%    100.00% # Request fanout histogram
system.membus.snoop_fanout::overflows               0      0.00%    100.00% # Request fanout histogram
system.membus.snoop_fanout::min_value               0                       # Request fanout histogram
system.membus.snoop_fanout::max_value               0                       # Request fanout histogram
system.membus.snoop_fanout::total                   3                       # Request fanout histogram
system.membus.reqLayer2.occupancy                1500                       # Layer occupancy (ticks)
system.membus.reqLayer2.utilization               1.6                       # Layer utilization (%)
system.membus.respLayer1.occupancy               5750                       # Layer occupancy (ticks)
system.membus.respLayer1.utilization              6.1                       # Layer utilization (%)
system.switch_cpus.pwrStateResidencyTicks::OFF        95000                       # Cumulative time (in ticks) in various power states
system.switch_cpus.dtb.walker.pwrStateResidencyTicks::UNDEFINED        95000                       # Cumulative time (in ticks) in various power states
system.switch_cpus.itb.walker.pwrStateResidencyTicks::UNDEFINED        95000                       # Cumulative time (in ticks) in various power states
system.tol2bus.pwrStateResidencyTicks::UNDEFINED        95000                       # Cumulative time (in ticks) in various power states
system.tol2bus.trans_dist::ReadResp                 2                       # Transaction distribution
system.tol2bus.trans_dist::ReadExReq                1                       # Transaction distribution
system.tol2bus.trans_dist::ReadExResp               1                       # Transaction distribution
system.tol2bus.trans_dist::ReadCleanReq             3                       # Transaction distribution
system.tol2bus.pkt_count_system.cpu.icache.mem_side::system.l2.cpu_side            5                       # Packet count per connected master and slave (bytes)
system.tol2bus.pkt_count_system.cpu.dcache.mem_side::system.l2.cpu_side            2                       # Packet count per connected master and slave (bytes)
system.tol2bus.pkt_count::total                     7                       # Packet count per connected master and slave (bytes)
system.tol2bus.pkt_size_system.cpu.icache.mem_side::system.l2.cpu_side          128                       # Cumulative packet size per connected master and slave (bytes)
system.tol2bus.pkt_size_system.cpu.dcache.mem_side::system.l2.cpu_side           64                       # Cumulative packet size per connected master and slave (bytes)
system.tol2bus.pkt_size::total                    192                       # Cumulative packet size per connected master and slave (bytes)
system.tol2bus.snoops                               0                       # Total snoops (count)
system.tol2bus.snoopTraffic                         0                       # Total snoop traffic (bytes)
system.tol2bus.snoop_fanout::samples                4                       # Request fanout histogram
system.tol2bus.snoop_fanout::mean                   0                       # Request fanout histogram
system.tol2bus.snoop_fanout::stdev                  0                       # Request fanout histogram
system.tol2bus.snoop_fanout::underflows             0      0.00%      0.00% # Request fanout histogram
system.tol2bus.snoop_fanout::0                      4    100.00%    100.00% # Request fanout histogram
system.tol2bus.snoop_fanout::1                      0      0.00%    100.00% # Request fanout histogram
system.tol2bus.snoop_fanout::2                      0      0.00%    100.00% # Request fanout histogram
system.tol2bus.snoop_fanout::3                      0      0.00%    100.00% # Request fanout histogram
system.tol2bus.snoop_fanout::4                      0      0.00%    100.00% # Request fanout histogram
system.tol2bus.snoop_fanout::overflows              0      0.00%    100.00% # Request fanout histogram
system.tol2bus.snoop_fanout::min_value              0                       # Request fanout histogram
system.tol2bus.snoop_fanout::max_value              0                       # Request fanout histogram
system.tol2bus.snoop_fanout::total                  4                       # Request fanout histogram
system.tol2bus.reqLayer0.occupancy               1000                       # Layer occupancy (ticks)
system.tol2bus.reqLayer0.utilization              1.1                       # Layer utilization (%)
system.tol2bus.respLayer0.occupancy              1500                       # Layer occupancy (ticks)
system.tol2bus.respLayer0.utilization             1.6                       # Layer utilization (%)
system.voltage_domain.voltage                       1                       # Voltage in Volts
system.clk_domain.clock                          1000                       # Clock period in ticks
system.l2.pwrStateResidencyTicks::UNDEFINED        95000                       # Cumulative time (in ticks) in various power states
system.l2.demand_misses::.cpu.inst                  1                       # number of demand (read+write) misses
system.l2.demand_misses::.cpu.data                  1                       # number of demand (read+write) misses
system.l2.demand_misses::.switch_cpus.inst            2                       # number of demand (read+write) misses
system.l2.demand_misses::total                      4                       # number of demand (read+write) misses
system.l2.overall_misses::.cpu.inst                 1                       # number of overall misses
system.l2.overall_misses::.cpu.data                 1                       # number of overall misses
system.l2.overall_misses::.switch_cpus.inst            2                       # number of overall misses
system.l2.overall_misses::total                     4                       # number of overall misses
system.l2.demand_miss_latency::.switch_cpus.inst        86000                       # number of demand (read+write) miss cycles
system.l2.demand_miss_latency::total            86000                       # number of demand (read+write) miss cycles
system.l2.overall_miss_latency::.switch_cpus.inst        86000                       # number of overall miss cycles
system.l2.overall_miss_latency::total           86000                       # number of overall miss cycles
system.l2.demand_accesses::.cpu.inst                1                       # number of demand (read+write) accesses
system.l2.demand_accesses::.cpu.data                1                       # number of demand (read+write) accesses
system.l2.demand_accesses::.switch_cpus.inst            2                       # number of demand (read+write) accesses
system.l2.demand_accesses::total                    4                       # number of demand (read+write) accesses
system.l2.overall_accesses::.cpu.inst               1                       # number of overall (read+write) accesses
system.l2.overall_accesses::.cpu.data               1                       # number of overall (read+write) accesses
system.l2.overall_accesses::.switch_cpus.inst            2                       # number of overall (read+write) accesses
system.l2.overall_accesses::total                   4                       # number of overall (read+write) accesses
system.l2.demand_miss_rate::.cpu.inst               1                       # miss rate for demand accesses
system.l2.demand_miss_rate::.cpu.data               1                       # miss rate for demand accesses
system.l2.demand_miss_rate::.switch_cpus.inst            1                       # miss rate for demand accesses
system.l2.demand_miss_rate::total                   1                       # miss rate for demand accesses
system.l2.overall_miss_rate::.cpu.inst              1                       # miss rate for overall accesses
system.l2.overall_miss_rate::.cpu.data              1                       # miss rate for overall accesses
system.l2.overall_miss_rate::.switch_cpus.inst            1                       # miss rate for overall accesses
system.l2.overall_miss_rate::total                  1                       # miss rate for overall accesses
system.l2.demand_avg_miss_latency::.switch_cpus.inst        43000                       # average overall miss latency
system.l2.demand_avg_miss_latency::total        21500                       # average overall miss latency
system.l2.overall_avg_miss_latency::.switch_cpus.inst        43000                       # average overall miss latency
system.l2.overall_avg_miss_latency::total        21500                       # average overall miss latency
system.l2.blocked_cycles::no_mshrs                  0                       # number of cycles access was blocked
system.l2.blocked_cycles::no_targets                0                       # number of cycles access was blocked
system.l2.blocked::no_mshrs                         0                       # number of cycles access was blocked
system.l2.blocked::no_targets                       0                       # number of cycles access was blocked
system.l2.avg_blocked_cycles::no_mshrs            nan                       # average number of cycles each access was blocked
system.l2.avg_blocked_cycles::no_targets          nan                       # average number of cycles each access was blocked
system.l2.demand_mshr_misses::.switch_cpus.inst            2                       # number of demand (read+write) MSHR misses
system.l2.demand_mshr_misses::total                 2                       # number of demand (read+write) MSHR misses
system.l2.overall_mshr_misses::.switch_cpus.inst            2                       # number of overall MSHR misses
system.l2.overall_mshr_misses::total                2                       # number of overall MSHR misses
system.l2.demand_mshr_miss_latency::.switch_cpus.inst        76000                       # number of demand (read+write) MSHR miss cycles
system.l2.demand_mshr_miss_latency::total        76000                       # number of demand (read+write) MSHR miss cycles
system.l2.overall_mshr_miss_latency::.switch_cpus.inst        76000                       # number of overall MSHR miss cycles
system.l2.overall_mshr_miss_latency::total        76000                       # number of overall MSHR miss cycles
system.l2.demand_mshr_miss_rate::.switch_cpus.inst            1                       # mshr miss rate for demand accesses
system.l2.demand_mshr_miss_rate::total       0.500000                       # mshr miss rate for demand accesses
system.l2.overall_mshr_miss_rate::.switch_cpus.inst            1                       # mshr miss rate for overall accesses
system.l2.overall_mshr_miss_rate::total      0.500000                       # mshr miss rate for overall accesses
system.l2.demand_avg_mshr_miss_latency::.switch_cpus.inst        38000                       # average overall mshr miss latency
system.l2.demand_avg_mshr_miss_latency::total        38000                       # average overall mshr miss latency
system.l2.overall_avg_mshr_miss_latency::.switch_cpus.inst        38000                       # average overall mshr miss latency
system.l2.overall_avg_mshr_miss_latency::total        38000                       # average overall mshr miss latency
system.l2.replacements                              0                       # number of replacements
system.l2.ReadExReq_misses::.cpu.data               1                       # number of ReadExReq misses
system.l2.ReadExReq_misses::total                   1                       # number of ReadExReq misses
system.l2.ReadExReq_accesses::.cpu.data             1                       # number of ReadExReq accesses(hits+misses)
system.l2.ReadExReq_accesses::total                 1                       # number of ReadExReq accesses(hits+misses)
system.l2.ReadExReq_miss_rate::.cpu.data            1                       # miss rate for ReadExReq accesses
system.l2.ReadExReq_miss_rate::total                1                       # miss rate for ReadExReq accesses
system.l2.ReadCleanReq_misses::.cpu.inst            1                       # number of ReadCleanReq misses
system.l2.ReadCleanReq_misses::.switch_cpus.inst            2                       # number of ReadCleanReq misses
system.l2.ReadCleanReq_misses::total                3                       # number of ReadCleanReq misses
system.l2.ReadCleanReq_miss_latency::.switch_cpus.inst        86000                       # number of ReadCleanReq miss cycles
system.l2.ReadCleanReq_miss_latency::total        86000                       # number of ReadCleanReq miss cycles
system.l2.ReadCleanReq_accesses::.cpu.inst            1                       # number of ReadCleanReq accesses(hits+misses)
system.l2.ReadCleanReq_accesses::.switch_cpus.inst            2                       # number of ReadCleanReq accesses(hits+misses)
system.l2.ReadCleanReq_accesses::total              3                       # number of ReadCleanReq accesses(hits+misses)
system.l2.ReadCleanReq_miss_rate::.cpu.inst            1                       # miss rate for ReadCleanReq accesses
system.l2.ReadCleanReq_miss_rate::.switch_cpus.inst            1                       # miss rate for ReadCleanReq accesses
system.l2.ReadCleanReq_miss_rate::total             1                       # miss rate for ReadCleanReq accesses
system.l2.ReadCleanReq_avg_miss_latency::.switch_cpus.inst        43000                       # average ReadCleanReq miss latency
system.l2.ReadCleanReq_avg_miss_latency::total 28666.666667                       # average ReadCleanReq miss latency
system.l2.ReadCleanReq_mshr_misses::.switch_cpus.inst            2                       # number of ReadCleanReq MSHR misses
system.l2.ReadCleanReq_mshr_misses::total            2                       # number of ReadCleanReq MSHR misses
system.l2.ReadCleanReq_mshr_miss_latency::.switch_cpus.inst        76000                       # number of ReadCleanReq MSHR miss cycles
system.l2.ReadCleanReq_mshr_miss_latency::total        76000                       # number of ReadCleanReq MSHR miss cycles
system.l2.ReadCleanReq_mshr_miss_rate::.switch_cpus.inst            1                       # mshr miss rate for ReadCleanReq accesses
system.l2.ReadCleanReq_mshr_miss_rate::total     0.666667                       # mshr miss rate for ReadCleanReq accesses
system.l2.ReadCleanReq_avg_mshr_miss_latency::.switch_cpus.inst        38000                       # average ReadCleanReq mshr miss latency
system.l2.ReadCleanReq_avg_mshr_miss_latency::total        38000                       # average ReadCleanReq mshr miss latency
system.l2.tags.pwrStateResidencyTicks::UNDEFINED        95000                       # Cumulative time (in ticks) in various power states
system.l2.tags.tagsinuse                     2.136851                       # Cycle average of tags in use
system.l2.tags.total_refs                           0                       # Total number of references to valid blocks.
system.l2.tags.sampled_refs                         0                       # Sample count of references to valid blocks.
system.l2.tags.avg_refs                           nan                       # Average number of references to valid blocks.
system.l2.tags.warmup_cycle                       500                       # Cycle when the warmup percentage was hit.
system.l2.tags.occ_blocks::.cpu.inst         0.994737                       # Average occupied blocks per requestor
system.l2.tags.occ_blocks::.cpu.data         0.984211                       # Average occupied blocks per requestor
system.l2.tags.occ_blocks::.switch_cpus.inst     0.157904                       # Average occupied blocks per requestor
system.l2.tags.occ_percent::.cpu.inst        0.000030                       # Average percentage of cache occupancy
system.l2.tags.occ_percent::.cpu.data        0.000030                       # Average percentage of cache occupancy
system.l2.tags.occ_percent::.switch_cpus.inst     0.000005                       # Average percentage of cache occupancy
system.l2.tags.occ_percent::total            0.000065                       # Average percentage of cache occupancy
system.l2.tags.occ_task_id_blocks::1024             3                       # Occupied blocks per task id
system.l2.tags.age_task_id_blocks_1024::0            3                       # Occupied blocks per task id
system.l2.tags.occ_task_id_percent::1024     0.000092                       # Percentage of cache occupancy per task id
system.l2.tags.tag_accesses                        35                       # Number of tag accesses
system.l2.tags.data_accesses                       35                       # Number of data accesses
system.cpu_voltage_domain.voltage                   1                       # Voltage in Volts
system.mem_ctrls.pwrStateResidencyTicks::UNDEFINED        95000                       # Cumulative time (in ticks) in various power states
system.mem_ctrls.bytes_read::.cpu.inst             64                       # Number of bytes read from this memory
system.mem_ctrls.bytes_read::.cpu.data             64                       # Number of bytes read from this memory
system.mem_ctrls.bytes_read::.switch_cpus.inst           64                       # Number of bytes read from this memory
system.mem_ctrls.bytes_read::total                192                       # Number of bytes read from this memory
system.mem_ctrls.bytes_inst_read::.cpu.inst           64                       # Number of instructions bytes read from this memory
system.mem_ctrls.bytes_inst_read::.switch_cpus.inst           64                       # Number of instructions bytes read from this memory
system.mem_ctrls.bytes_inst_read::total           128                       # Number of instructions bytes read from this memory
system.mem_ctrls.num_reads::.cpu.inst               1                       # Number of read requests responded to by this memory
system.mem_ctrls.num_reads::.cpu.data               1                       # Number of read requests responded to by this memory
system.mem_ctrls.num_reads::.switch_cpus.inst            1                       # Number of read requests responded to by this memory
system.mem_ctrls.num_reads::total                   3                       # Number of read requests responded to by this memory
system.mem_ctrls.bw_read::.cpu.inst         673684211                       # Total read bandwidth from this memory (bytes/s)
system.mem_ctrls.bw_read::.cpu.data         673684211                       # Total read bandwidth from this memory (bytes/s)
system.mem_ctrls.bw_read::.switch_cpus.inst    673684211                       # Total read bandwidth from this memory (bytes/s)
system.mem_ctrls.bw_read::total            2021052632                       # Total read bandwidth from this memory (bytes/s)
system.mem_ctrls.bw_inst_read::.cpu.inst    673684211                       # Instruction read bandwidth from this memory (bytes/s)
system.mem_ctrls.bw_inst_read::.switch_cpus.inst    673684211                       # Instruction read bandwidth from this memory (bytes/s)
system.mem_ctrls.bw_inst_read::total       1347368421                       # Instruction read bandwidth from this memory (bytes/s)
system.mem_ctrls.bw_total::.cpu.inst        673684211                       # Total bandwidth to/from this memory (bytes/s)
system.mem_ctrls.bw_total::.cpu.data        673684211                       # Total bandwidth to/from this memory (bytes/s)
system.mem_ctrls.bw_total::.switch_cpus.inst    673684211                       # Total bandwidth to/from this memory (bytes/s)
system.mem_ctrls.bw_total::total           2021052632                       # Total bandwidth to/from this memory (bytes/s)
system.mem_ctrls.avgPriority_.switch_cpus.inst::samples         1.00                       # Average QoS priority value for accepted requests
system.mem_ctrls.priorityMinLatency      0.000000034250                       # per QoS priority minimum request to response latency (s)
system.mem_ctrls.priorityMaxLatency      0.000000034250                       # per QoS priority maximum request to response latency (s)
system.mem_ctrls.numReadWriteTurnArounds            0                       # Number of turnarounds from READ to WRITE
system.mem_ctrls.numWriteReadTurnArounds            0                       # Number of turnarounds from WRITE to READ
system.mem_ctrls.numStayReadState                   2                       # Number of times bus staying in READ state
system.mem_ctrls.numStayWriteState                  0                       # Number of times bus staying in WRITE state
system.mem_ctrls.readReqs                           1                       # Number of read requests accepted
system.mem_ctrls.writeReqs                          0                       # Number of write requests accepted
system.mem_ctrls.readBursts                         1                       # Number of DRAM read bursts, including those serviced by the write queue
system.mem_ctrls.writeBursts                        0                       # Number of DRAM write bursts, including those merged in the write queue
system.mem_ctrls.servicedByWrQ                      0                       # Number of DRAM read bursts serviced by the write queue
system.mem_ctrls.mergedWrBursts                     0                       # Number of DRAM write bursts merged with an existing one
system.mem_ctrls.neitherReadNorWriteReqs            0                       # Number of requests that are neither read nor write
system.mem_ctrls.perBankRdBursts::0                 0                       # Per bank write bursts
system.mem_ctrls.perBankRdBursts::1                 0                       # Per bank write bursts
system.mem_ctrls.perBankRdBursts::2                 1                       # Per bank write bursts
system.mem_ctrls.perBankRdBursts::3                 0                       # Per bank write bursts
system.mem_ctrls.perBankRdBursts::4                 0                       # Per bank write bursts
system.mem_ctrls.perBankRdBursts::5                 0                       # Per bank write bursts
system.mem_ctrls.perBankRdBursts::6                 0                       # Per bank write bursts
system.mem_ctrls.perBankRdBursts::7                 0                       # Per bank write bursts
system.mem_ctrls.perBankRdBursts::8                 0                       # Per bank write bursts
system.mem_ctrls.perBankRdBursts::9                 0                       # Per bank write bursts
system.mem_ctrls.perBankRdBursts::10                0                       # Per bank write bursts
system.mem_ctrls.perBankRdBursts::11                0                       # Per bank write bursts
system.mem_ctrls.perBankRdBursts::12                0                       # Per bank write bursts
system.mem_ctrls.perBankRdBursts::13                0                       # Per bank write bursts
system.mem_ctrls.perBankRdBursts::14                0                       # Per bank write bursts
system.mem_ctrls.perBankRdBursts::15                0                       # Per bank write bursts
system.mem_ctrls.perBankWrBursts::0                 0                       # Per bank write bursts
system.mem_ctrls.perBankWrBursts::1                 0                       # Per bank write bursts
system.mem_ctrls.perBankWrBursts::2                 0                       # Per bank write bursts
system.mem_ctrls.perBankWrBursts::3                 0                       # Per bank write bursts
system.mem_ctrls.perBankWrBursts::4                 0                       # Per bank write bursts
system.mem_ctrls.perBankWrBursts::5                 0                       # Per bank write bursts
system.mem_ctrls.perBankWrBursts::6                 0                       # Per bank write bursts
system.mem_ctrls.perBankWrBursts::7                 0                       # Per bank write bursts
system.mem_ctrls.perBankWrBursts::8                 0                       # Per bank write bursts
system.mem_ctrls.perBankWrBursts::9                 0                       # Per bank write bursts
system.mem_ctrls.perBankWrBursts::10                0                       # Per bank write bursts
system.mem_ctrls.perBankWrBursts::11                0                       # Per bank write bursts
system.mem_ctrls.perBankWrBursts::12                0                       # Per bank write bursts
system.mem_ctrls.perBankWrBursts::13                0                       # Per bank write bursts
system.mem_ctrls.perBankWrBursts::14                0                       # Per bank write bursts
system.mem_ctrls.perBankWrBursts::15                0                       # Per bank write bursts
[...]
system.cpu.icache.tags.occ_percent::total     0.943674                       # Average percentage of cache occupancy
system.cpu.icache.tags.occ_task_id_blocks::1024          485                       # Occupied blocks per task id
system.cpu.icache.tags.age_task_id_blocks_1024::3          485                       # Occupied blocks per task id
system.cpu.icache.tags.occ_task_id_percent::1024     0.947266                       # Percentage of cache occupancy per task id
system.cpu.icache.tags.tag_accesses           4663662                       # Number of tag accesses
system.cpu.icache.tags.data_accesses          4663662                       # Number of data accesses
system.cpu.dtb.walker.pwrStateResidencyTicks::UNDEFINED   7234290500                       # Cumulative time (in ticks) in various power states
system.cpu.interrupts.clk_domain.clock           8000                       # Clock period in ticks
system.cpu.itb_walker_cache.pwrStateResidencyTicks::UNDEFINED   7234290500                       # Cumulative time (in ticks) in various power states
system.cpu.itb_walker_cache.blocked_cycles::no_mshrs            0                       # number of cycles access was blocked
system.cpu.itb_walker_cache.blocked_cycles::no_targets            0                       # number of cycles access was blocked
system.cpu.itb_walker_cache.blocked::no_mshrs            0                       # number of cycles access was blocked
system.cpu.itb_walker_cache.blocked::no_targets            0                       # number of cycles access was blocked
system.cpu.itb_walker_cache.avg_blocked_cycles::no_mshrs          nan                       # average number of cycles each access was blocked
system.cpu.itb_walker_cache.avg_blocked_cycles::no_targets          nan                       # average number of cycles each access was blocked
system.cpu.itb_walker_cache.replacements            0                       # number of replacements
system.cpu.itb_walker_cache.tags.pwrStateResidencyTicks::UNDEFINED   7234290500                       # Cumulative time (in ticks) in various power states
system.cpu.itb_walker_cache.tags.tagsinuse            0                       # Cycle average of tags in use
system.cpu.itb_walker_cache.tags.total_refs            0                       # Total number of references to valid blocks.
system.cpu.itb_walker_cache.tags.sampled_refs            0                       # Sample count of references to valid blocks.
system.cpu.itb_walker_cache.tags.avg_refs          nan                       # Average number of references to valid blocks.
system.cpu.itb_walker_cache.tags.warmup_cycle            0                       # Cycle when the warmup percentage was hit.
system.cpu.itb_walker_cache.tags.tag_accesses            0                       # Number of tag accesses
system.cpu.itb_walker_cache.tags.data_accesses            0                       # Number of data accesses
system.cpu.itb.walker.pwrStateResidencyTicks::UNDEFINED   7234290500                       # Cumulative time (in ticks) in various power states
system.cpu.dtb_walker_cache.pwrStateResidencyTicks::UNDEFINED   7234290500                       # Cumulative time (in ticks) in various power states
system.cpu.dtb_walker_cache.blocked_cycles::no_mshrs            0                       # number of cycles access was blocked
system.cpu.dtb_walker_cache.blocked_cycles::no_targets            0                       # number of cycles access was blocked
system.cpu.dtb_walker_cache.blocked::no_mshrs            0                       # number of cycles access was blocked
system.cpu.dtb_walker_cache.blocked::no_targets            0                       # number of cycles access was blocked
system.cpu.dtb_walker_cache.avg_blocked_cycles::no_mshrs          nan                       # average number of cycles each access was blocked
system.cpu.dtb_walker_cache.avg_blocked_cycles::no_targets          nan                       # average number of cycles each access was blocked
system.cpu.dtb_walker_cache.replacements            0                       # number of replacements
system.cpu.dtb_walker_cache.tags.pwrStateResidencyTicks::UNDEFINED   7234290500                       # Cumulative time (in ticks) in various power states
system.cpu.dtb_walker_cache.tags.tagsinuse            0                       # Cycle average of tags in use
system.cpu.dtb_walker_cache.tags.total_refs            0                       # Total number of references to valid blocks.
system.cpu.dtb_walker_cache.tags.sampled_refs            0                       # Sample count of references to valid blocks.
system.cpu.dtb_walker_cache.tags.avg_refs          nan                       # Average number of references to valid blocks.
system.cpu.dtb_walker_cache.tags.warmup_cycle            0                       # Cycle when the warmup percentage was hit.
system.cpu.dtb_walker_cache.tags.tag_accesses            0                       # Number of tag accesses
system.cpu.dtb_walker_cache.tags.data_accesses            0                       # Number of data accesses
system.cpu.dcache.pwrStateResidencyTicks::UNDEFINED   7234290500                       # Cumulative time (in ticks) in various power states
system.cpu.dcache.demand_hits::.switch_cpus.data      4881599                       # number of demand (read+write) hits
system.cpu.dcache.demand_hits::total          4881599                       # number of demand (read+write) hits
system.cpu.dcache.overall_hits::.switch_cpus.data      4881599                       # number of overall hits
system.cpu.dcache.overall_hits::total         4881599                       # number of overall hits
system.cpu.dcache.demand_misses::.cpu.data            1                       # number of demand (read+write) misses
system.cpu.dcache.demand_misses::.switch_cpus.data         6295                       # number of demand (read+write) misses
system.cpu.dcache.demand_misses::total           6296                       # number of demand (read+write) misses
system.cpu.dcache.overall_misses::.cpu.data            1                       # number of overall misses
system.cpu.dcache.overall_misses::.switch_cpus.data         6295                       # number of overall misses
system.cpu.dcache.overall_misses::total          6296                       # number of overall misses
system.cpu.dcache.demand_miss_latency::.switch_cpus.data    398695000                       # number of demand (read+write) miss cycles
system.cpu.dcache.demand_miss_latency::total    398695000                       # number of demand (read+write) miss cycles
system.cpu.dcache.overall_miss_latency::.switch_cpus.data    398695000                       # number of overall miss cycles
system.cpu.dcache.overall_miss_latency::total    398695000                       # number of overall miss cycles
system.cpu.dcache.demand_accesses::.cpu.data            1                       # number of demand (read+write) accesses
system.cpu.dcache.demand_accesses::.switch_cpus.data      4887894                       # number of demand (read+write) accesses
system.cpu.dcache.demand_accesses::total      4887895                       # number of demand (read+write) accesses
system.cpu.dcache.overall_accesses::.cpu.data            1                       # number of overall (read+write) accesses
system.cpu.dcache.overall_accesses::.switch_cpus.data      4887894                       # number of overall (read+write) accesses
system.cpu.dcache.overall_accesses::total      4887895                       # number of overall (read+write) accesses
system.cpu.dcache.demand_miss_rate::.cpu.data            1                       # miss rate for demand accesses
system.cpu.dcache.demand_miss_rate::.switch_cpus.data     0.001288                       # miss rate for demand accesses
system.cpu.dcache.demand_miss_rate::total     0.001288                       # miss rate for demand accesses
system.cpu.dcache.overall_miss_rate::.cpu.data            1                       # miss rate for overall accesses
system.cpu.dcache.overall_miss_rate::.switch_cpus.data     0.001288                       # miss rate for overall accesses
system.cpu.dcache.overall_miss_rate::total     0.001288                       # miss rate for overall accesses
system.cpu.dcache.demand_avg_miss_latency::.switch_cpus.data 63335.186656                       # average overall miss latency
system.cpu.dcache.demand_avg_miss_latency::total 63325.127065                       # average overall miss latency
system.cpu.dcache.overall_avg_miss_latency::.switch_cpus.data 63335.186656                       # average overall miss latency
system.cpu.dcache.overall_avg_miss_latency::total 63325.127065                       # average overall miss latency
system.cpu.dcache.blocked_cycles::no_mshrs        15223                       # number of cycles access was blocked
system.cpu.dcache.blocked_cycles::no_targets           15                       # number of cycles access was blocked
system.cpu.dcache.blocked::no_mshrs               267                       # number of cycles access was blocked
system.cpu.dcache.blocked::no_targets               1                       # number of cycles access was blocked
system.cpu.dcache.avg_blocked_cycles::no_mshrs    57.014981                       # average number of cycles each access was blocked
system.cpu.dcache.avg_blocked_cycles::no_targets           15                       # average number of cycles each access was blocked
system.cpu.dcache.writebacks::.writebacks          257                       # number of writebacks
system.cpu.dcache.writebacks::total               257                       # number of writebacks
system.cpu.dcache.demand_mshr_hits::.switch_cpus.data         4596                       # number of demand (read+write) MSHR hits
system.cpu.dcache.demand_mshr_hits::total         4596                       # number of demand (read+write) MSHR hits
system.cpu.dcache.overall_mshr_hits::.switch_cpus.data         4596                       # number of overall MSHR hits
system.cpu.dcache.overall_mshr_hits::total         4596                       # number of overall MSHR hits
system.cpu.dcache.demand_mshr_misses::.switch_cpus.data         1699                       # number of demand (read+write) MSHR misses
system.cpu.dcache.demand_mshr_misses::total         1699                       # number of demand (read+write) MSHR misses
system.cpu.dcache.overall_mshr_misses::.switch_cpus.data         1699                       # number of overall MSHR misses
system.cpu.dcache.overall_mshr_misses::total         1699                       # number of overall MSHR misses
system.cpu.dcache.demand_mshr_miss_latency::.switch_cpus.data    127218500                       # number of demand (read+write) MSHR miss cycles
system.cpu.dcache.demand_mshr_miss_latency::total    127218500                       # number of demand (read+write) MSHR miss cycles
system.cpu.dcache.overall_mshr_miss_latency::.switch_cpus.data    127218500                       # number of overall MSHR miss cycles
system.cpu.dcache.overall_mshr_miss_latency::total    127218500                       # number of overall MSHR miss cycles
system.cpu.dcache.demand_mshr_miss_rate::.switch_cpus.data     0.000348                       # mshr miss rate for demand accesses
system.cpu.dcache.demand_mshr_miss_rate::total     0.000348                       # mshr miss rate for demand accesses
system.cpu.dcache.overall_mshr_miss_rate::.switch_cpus.data     0.000348                       # mshr miss rate for overall accesses
system.cpu.dcache.overall_mshr_miss_rate::total     0.000348                       # mshr miss rate for overall accesses
system.cpu.dcache.demand_avg_mshr_miss_latency::.switch_cpus.data 74878.457916                       # average overall mshr miss latency
system.cpu.dcache.demand_avg_mshr_miss_latency::total 74878.457916                       # average overall mshr miss latency
system.cpu.dcache.overall_avg_mshr_miss_latency::.switch_cpus.data 74878.457916                       # average overall mshr miss latency
system.cpu.dcache.overall_avg_mshr_miss_latency::total 74878.457916                       # average overall mshr miss latency
system.cpu.dcache.replacements                    694                       # number of replacements
system.cpu.dcache.ReadReq_hits::.switch_cpus.data      3205797                       # number of ReadReq hits
system.cpu.dcache.ReadReq_hits::total         3205797                       # number of ReadReq hits
system.cpu.dcache.ReadReq_misses::.switch_cpus.data         5817                       # number of ReadReq misses
system.cpu.dcache.ReadReq_misses::total          5817                       # number of ReadReq misses
system.cpu.dcache.ReadReq_miss_latency::.switch_cpus.data    362291500                       # number of ReadReq miss cycles
system.cpu.dcache.ReadReq_miss_latency::total    362291500                       # number of ReadReq miss cycles
system.cpu.dcache.ReadReq_accesses::.switch_cpus.data      3211614                       # number of ReadReq accesses(hits+misses)
system.cpu.dcache.ReadReq_accesses::total      3211614                       # number of ReadReq accesses(hits+misses)
system.cpu.dcache.ReadReq_miss_rate::.switch_cpus.data     0.001811                       # miss rate for ReadReq accesses
system.cpu.dcache.ReadReq_miss_rate::total     0.001811                       # miss rate for ReadReq accesses
system.cpu.dcache.ReadReq_avg_miss_latency::.switch_cpus.data 62281.502493                       # average ReadReq miss latency
system.cpu.dcache.ReadReq_avg_miss_latency::total 62281.502493                       # average ReadReq miss latency
system.cpu.dcache.ReadReq_mshr_hits::.switch_cpus.data         4592                       # number of ReadReq MSHR hits
system.cpu.dcache.ReadReq_mshr_hits::total         4592                       # number of ReadReq MSHR hits
system.cpu.dcache.ReadReq_mshr_misses::.switch_cpus.data         1225                       # number of ReadReq MSHR misses
system.cpu.dcache.ReadReq_mshr_misses::total         1225                       # number of ReadReq MSHR misses
system.cpu.dcache.ReadReq_mshr_miss_latency::.switch_cpus.data     91472000                       # number of ReadReq MSHR miss cycles
system.cpu.dcache.ReadReq_mshr_miss_latency::total     91472000                       # number of ReadReq MSHR miss cycles
system.cpu.dcache.ReadReq_mshr_miss_rate::.switch_cpus.data     0.000381                       # mshr miss rate for ReadReq accesses
system.cpu.dcache.ReadReq_mshr_miss_rate::total     0.000381                       # mshr miss rate for ReadReq accesses
system.cpu.dcache.ReadReq_avg_mshr_miss_latency::.switch_cpus.data 74671.020408                       # average ReadReq mshr miss latency
system.cpu.dcache.ReadReq_avg_mshr_miss_latency::total 74671.020408                       # average ReadReq mshr miss latency
system.cpu.dcache.WriteReq_hits::.switch_cpus.data      1675802                       # number of WriteReq hits
system.cpu.dcache.WriteReq_hits::total        1675802                       # number of WriteReq hits
system.cpu.dcache.WriteReq_misses::.cpu.data            1                       # number of WriteReq misses
system.cpu.dcache.WriteReq_misses::.switch_cpus.data          478                       # number of WriteReq misses
system.cpu.dcache.WriteReq_misses::total          479                       # number of WriteReq misses
system.cpu.dcache.WriteReq_miss_latency::.switch_cpus.data     36403500                       # number of WriteReq miss cycles
system.cpu.dcache.WriteReq_miss_latency::total     36403500                       # number of WriteReq miss cycles
system.cpu.dcache.WriteReq_accesses::.cpu.data            1                       # number of WriteReq accesses(hits+misses)
system.cpu.dcache.WriteReq_accesses::.switch_cpus.data      1676280                       # number of WriteReq accesses(hits+misses)
system.cpu.dcache.WriteReq_accesses::total      1676281                       # number of WriteReq accesses(hits+misses)
system.cpu.dcache.WriteReq_miss_rate::.cpu.data            1                       # miss rate for WriteReq accesses
system.cpu.dcache.WriteReq_miss_rate::.switch_cpus.data     0.000285                       # miss rate for WriteReq accesses
system.cpu.dcache.WriteReq_miss_rate::total     0.000286                       # miss rate for WriteReq accesses
system.cpu.dcache.WriteReq_avg_miss_latency::.switch_cpus.data 76157.949791                       # average WriteReq miss latency
system.cpu.dcache.WriteReq_avg_miss_latency::total 75998.956159                       # average WriteReq miss latency
system.cpu.dcache.WriteReq_mshr_hits::.switch_cpus.data            4                       # number of WriteReq MSHR hits
system.cpu.dcache.WriteReq_mshr_hits::total            4                       # number of WriteReq MSHR hits
system.cpu.dcache.WriteReq_mshr_misses::.switch_cpus.data          474                       # number of WriteReq MSHR misses
system.cpu.dcache.WriteReq_mshr_misses::total          474                       # number of WriteReq MSHR misses
system.cpu.dcache.WriteReq_mshr_miss_latency::.switch_cpus.data     35746500                       # number of WriteReq MSHR miss cycles
system.cpu.dcache.WriteReq_mshr_miss_latency::total     35746500                       # number of WriteReq MSHR miss cycles
system.cpu.dcache.WriteReq_mshr_miss_rate::.switch_cpus.data     0.000283                       # mshr miss rate for WriteReq accesses
system.cpu.dcache.WriteReq_mshr_miss_rate::total     0.000283                       # mshr miss rate for WriteReq accesses
system.cpu.dcache.WriteReq_avg_mshr_miss_latency::.switch_cpus.data 75414.556962                       # average WriteReq mshr miss latency
system.cpu.dcache.WriteReq_avg_mshr_miss_latency::total 75414.556962                       # average WriteReq mshr miss latency
system.cpu.dcache.tags.pwrStateResidencyTicks::UNDEFINED   7234290500                       # Cumulative time (in ticks) in various power states
system.cpu.dcache.tags.tagsinuse           999.732995                       # Cycle average of tags in use
system.cpu.dcache.tags.total_refs             4883299                       # Total number of references to valid blocks.
system.cpu.dcache.tags.sampled_refs              1700                       # Sample count of references to valid blocks.
system.cpu.dcache.tags.avg_refs           2872.528824                       # Average number of references to valid blocks.
system.cpu.dcache.tags.warmup_cycle              1500                       # Cycle when the warmup percentage was hit.
system.cpu.dcache.tags.occ_blocks::.cpu.data     1.000000                       # Average occupied blocks per requestor
system.cpu.dcache.tags.occ_blocks::.switch_cpus.data   998.732995                       # Average occupied blocks per requestor
system.cpu.dcache.tags.occ_percent::.cpu.data     0.000977                       # Average percentage of cache occupancy
system.cpu.dcache.tags.occ_percent::.switch_cpus.data     0.975325                       # Average percentage of cache occupancy
system.cpu.dcache.tags.occ_percent::total     0.976302                       # Average percentage of cache occupancy
system.cpu.dcache.tags.occ_task_id_blocks::1024         1006                       # Occupied blocks per task id
system.cpu.dcache.tags.age_task_id_blocks_1024::3         1006                       # Occupied blocks per task id
system.cpu.dcache.tags.occ_task_id_percent::1024     0.982422                       # Percentage of cache occupancy per task id
system.cpu.dcache.tags.tag_accesses           9777490                       # Number of tag accesses
system.cpu.dcache.tags.data_accesses          9777490                       # Number of data accesses

---------- End Simulation Statistics   ----------
