
---------- Begin Simulation Statistics ----------
final_tick                               713234005000                       # Number of ticks from beginning of simulation (restored from checkpoints and never reset)
host_inst_rate                                 225452                       # Simulator instruction rate (inst/s)
host_mem_usage                                 689060                       # Number of bytes of host memory used
host_op_rate                                   303211                       # Simulator op (including micro ops) rate (op/s)
host_seconds                                     4.44                       # Real time elapsed on the host
host_tick_rate                               68382021                       # Simulator tick rate (ticks/s)
sim_freq                                 1000000000000                       # Frequency of simulated ticks
sim_insts                                     1000009                       # Number of instructions simulated
sim_ops                                       1344967                       # Number of ops (including micro ops) simulated
sim_seconds                                  0.000303                       # Number of seconds simulated
sim_ticks                                   303328500                       # Number of ticks simulated
system.cpu.Branches                                 2                       # Number of branches fetched
system.cpu.committedInsts                           9                       # Number of instructions committed
system.cpu.committedOps                            17                       # Number of ops (including micro ops) committed
system.cpu.dtb.rdAccesses                           4                       # TLB accesses on read requests
system.cpu.dtb.rdMisses                             0                       # TLB misses on read requests
system.cpu.dtb.wrAccesses                           0                       # TLB accesses on write requests
system.cpu.dtb.wrMisses                             0                       # TLB misses on write requests
system.cpu.idle_fraction                            0                       # Percentage of idle cycles
system.cpu.itb.rdAccesses                           0                       # TLB accesses on read requests
system.cpu.itb.rdMisses                             0                       # TLB misses on read requests
system.cpu.itb.wrAccesses                          12                       # TLB accesses on write requests
system.cpu.itb.wrMisses                             0                       # TLB misses on write requests
system.cpu.not_idle_fraction                        1                       # Percentage of non-idle cycles
system.cpu.numCycles                               20                       # number of cpu cycles simulated
system.cpu.numWorkItemsCompleted                    0                       # number of work items this cpu completed
system.cpu.numWorkItemsStarted                      0                       # number of work items this cpu started
system.cpu.num_busy_cycles                         20                       # Number of busy cycles
system.cpu.num_cc_register_reads                   10                       # number of times the CC registers were read
system.cpu.num_cc_register_writes                   6                       # number of times the CC registers were written
system.cpu.num_conditional_control_insts            2                       # number of instructions that are conditional controls
system.cpu.num_fp_alu_accesses                      0                       # Number of float alu accesses
system.cpu.num_fp_insts                             0                       # number of float instructions
system.cpu.num_fp_register_reads                    0                       # number of times the floating registers were read
system.cpu.num_fp_register_writes                   0                       # number of times the floating registers were written
system.cpu.num_func_calls                           0                       # number of times a function call or return occured
system.cpu.num_idle_cycles                          0                       # Number of idle cycles
system.cpu.num_int_alu_accesses                    17                       # Number of integer alu accesses
system.cpu.num_int_insts                           17                       # number of integer instructions
system.cpu.num_int_register_reads                  30                       # number of times the integer registers were read
system.cpu.num_int_register_writes                 15                       # number of times the integer registers were written
system.cpu.num_load_insts                           4                       # Number of load instructions
system.cpu.num_mem_refs                             4                       # number of memory refs
system.cpu.num_store_insts                          0                       # Number of store instructions
system.cpu.num_vec_alu_accesses                     0                       # Number of vector alu accesses
system.cpu.num_vec_insts                            0                       # number of vector instructions
system.cpu.num_vec_register_reads                   0                       # number of times the vector registers were read
system.cpu.num_vec_register_writes                  0                       # number of times the vector registers were written
system.cpu.op_class::No_OpClass                     0      0.00%      0.00% # Class of executed instruction
system.cpu.op_class::IntAlu                        13     76.47%     76.47% # Class of executed instruction
system.cpu.op_class::IntMult                        0      0.00%     76.47% # Class of executed instruction
system.cpu.op_class::IntDiv                         0      0.00%     76.47% # Class of executed instruction
system.cpu.op_class::FloatAdd                       0      0.00%     76.47% # Class of executed instruction
system.cpu.op_class::FloatCmp                       0      0.00%     76.47% # Class of executed instruction
system.cpu.op_class::FloatCvt                       0      0.00%     76.47% # Class of executed instruction
system.cpu.op_class::FloatMult                      0      0.00%     76.47% # Class of executed instruction
system.cpu.op_class::FloatMultAcc                   0      0.00%     76.47% # Class of executed instruction
system.cpu.op_class::FloatDiv                       0      0.00%     76.47% # Class of executed instruction
system.cpu.op_class::FloatMisc                      0      0.00%     76.47% # Class of executed instruction
system.cpu.op_class::FloatSqrt                      0      0.00%     76.47% # Class of executed instruction
system.cpu.op_class::SimdAdd                        0      0.00%     76.47% # Class of executed instruction
system.cpu.op_class::SimdAddAcc                     0      0.00%     76.47% # Class of executed instruction
system.cpu.op_class::SimdAlu                        0      0.00%     76.47% # Class of executed instruction
system.cpu.op_class::SimdCmp                        0      0.00%     76.47% # Class of executed instruction
system.cpu.op_class::SimdCvt                        0      0.00%     76.47% # Class of executed instruction
system.cpu.op_class::SimdMisc                       0      0.00%     76.47% # Class of executed instruction
system.cpu.op_class::SimdMult                       0      0.00%     76.47% # Class of executed instruction
system.cpu.op_class::SimdMultAcc                    0      0.00%     76.47% # Class of executed instruction
system.cpu.op_class::SimdShift                      0      0.00%     76.47% # Class of executed instruction
system.cpu.op_class::SimdShiftAcc                   0      0.00%     76.47% # Class of executed instruction
system.cpu.op_class::SimdDiv                        0      0.00%     76.47% # Class of executed instruction
system.cpu.op_class::SimdSqrt                       0      0.00%     76.47% # Class of executed instruction
system.cpu.op_class::SimdFloatAdd                   0      0.00%     76.47% # Class of executed instruction
system.cpu.op_class::SimdFloatAlu                   0      0.00%     76.47% # Class of executed instruction
system.cpu.op_class::SimdFloatCmp                   0      0.00%     76.47% # Class of executed instruction
system.cpu.op_class::SimdFloatCvt                   0      0.00%     76.47% # Class of executed instruction
system.cpu.op_class::SimdFloatDiv                   0      0.00%     76.47% # Class of executed instruction
system.cpu.op_class::SimdFloatMisc                  0      0.00%     76.47% # Class of executed instruction
system.cpu.op_class::SimdFloatMult                  0      0.00%     76.47% # Class of executed instruction
system.cpu.op_class::SimdFloatMultAcc               0      0.00%     76.47% # Class of executed instruction
system.cpu.op_class::SimdFloatSqrt                  0      0.00%     76.47% # Class of executed instruction
system.cpu.op_class::SimdReduceAdd                  0      0.00%     76.47% # Class of executed instruction
system.cpu.op_class::SimdReduceAlu                  0      0.00%     76.47% # Class of executed instruction
system.cpu.op_class::SimdReduceCmp                  0      0.00%     76.47% # Class of executed instruction
system.cpu.op_class::SimdFloatReduceAdd             0      0.00%     76.47% # Class of executed instruction
system.cpu.op_class::SimdFloatReduceCmp             0      0.00%     76.47% # Class of executed instruction
system.cpu.op_class::SimdAes                        0      0.00%     76.47% # Class of executed instruction
system.cpu.op_class::SimdAesMix                     0      0.00%     76.47% # Class of executed instruction
system.cpu.op_class::SimdSha1Hash                   0      0.00%     76.47% # Class of executed instruction
system.cpu.op_class::SimdSha1Hash2                  0      0.00%     76.47% # Class of executed instruction
system.cpu.op_class::SimdSha256Hash                 0      0.00%     76.47% # Class of executed instruction
system.cpu.op_class::SimdSha256Hash2                0      0.00%     76.47% # Class of executed instruction
system.cpu.op_class::SimdShaSigma2                  0      0.00%     76.47% # Class of executed instruction
system.cpu.op_class::SimdShaSigma3                  0      0.00%     76.47% # Class of executed instruction
system.cpu.op_class::SimdPredAlu                    0      0.00%     76.47% # Class of executed instruction
system.cpu.op_class::MemRead                        4     23.53%    100.00% # Class of executed instruction
system.cpu.op_class::MemWrite                       0      0.00%    100.00% # Class of executed instruction
system.cpu.op_class::FloatMemRead                   0      0.00%    100.00% # Class of executed instruction
system.cpu.op_class::FloatMemWrite                  0      0.00%    100.00% # Class of executed instruction
system.cpu.op_class::IprAccess                      0      0.00%    100.00% # Class of executed instruction
system.cpu.op_class::InstPrefetch                   0      0.00%    100.00% # Class of executed instruction
system.cpu.op_class::total                         17                       # Class of executed instruction
system.cpu.workload.numSyscalls                     0                       # Number of system calls
system.membus.snoop_filter.hit_multi_requests            0                       # Number of requests hitting in the snoop filter with multiple (>1) holders of the requested data.
system.membus.snoop_filter.hit_multi_snoops            0                       # Number of snoops hitting in the snoop filter with multiple (>1) holders of the requested data.
system.membus.snoop_filter.hit_single_requests            0                       # Number of requests hitting in the snoop filter with a single holder of the requested data.
system.membus.snoop_filter.hit_single_snoops            0                       # Number of snoops hitting in the snoop filter with a single holder of the requested data.
system.membus.snoop_filter.tot_requests            26                       # Total number of requests made to the snoop filter.
system.membus.snoop_filter.tot_snoops               0                       # Total number of snoops made to the snoop filter.
system.switch_cpus.branchPred.BTBCorrect            0                       # Number of correct BTB predictions (this stat may not work properly.
system.switch_cpus.branchPred.BTBHitPct      0.000000                       # BTB Hit Percentage
system.switch_cpus.branchPred.BTBHits               0                       # Number of BTB hits
system.switch_cpus.branchPred.BTBLookups        26488                       # Number of BTB lookups
system.switch_cpus.branchPred.RASInCorrect           55                       # Number of incorrect RAS predictions.
system.switch_cpus.branchPred.condIncorrect          954                       # Number of conditional branches incorrect
system.switch_cpus.branchPred.condPredicted        65212                       # Number of conditional branches predicted
system.switch_cpus.branchPred.indirectHits        22385                       # Number of indirect target hits.
system.switch_cpus.branchPred.indirectLookups        26488                       # Number of indirect predictor lookups.
system.switch_cpus.branchPred.indirectMisses         4103                       # Number of indirect misses.
system.switch_cpus.branchPred.lookups           66080                       # Number of BP lookups
system.switch_cpus.branchPred.usedRAS             626                       # Number of times the RAS was used to get a target.
system.switch_cpus.branchPredindirectMispredicted          306                       # Number of mispredicted indirect branches.
system.switch_cpus.cc_regfile_reads            304893                       # number of cc regfile reads
system.switch_cpus.cc_regfile_writes           553986                       # number of cc regfile writes
system.switch_cpus.commit.amos                      0                       # Number of atomic instructions committed
system.switch_cpus.commit.branchMispredicts          954                       # The number of times a branch was mispredicted
system.switch_cpus.commit.branches              61148                       # Number of branches committed
system.switch_cpus.commit.bw_lim_events         40471                       # number cycles where commit BW limit reached
system.switch_cpus.commit.commitSquashedInsts        52935                       # The number of squashed insts skipped by commit
system.switch_cpus.commit.committedInsts      1000000                       # Number of instructions committed
system.switch_cpus.commit.committedOps        1344950                       # Number of ops (including micro ops) committed
system.switch_cpus.commit.committed_per_cycle::samples       598260                       # Number of insts commited each cycle
system.switch_cpus.commit.committed_per_cycle::mean     2.248103                       # Number of insts commited each cycle
system.switch_cpus.commit.committed_per_cycle::stdev     2.450437                       # Number of insts commited each cycle
system.switch_cpus.commit.committed_per_cycle::underflows            0      0.00%      0.00% # Number of insts commited each cycle
system.switch_cpus.commit.committed_per_cycle::0       163759     27.37%     27.37% # Number of insts commited each cycle
system.switch_cpus.commit.committed_per_cycle::1       176752     29.54%     56.92% # Number of insts commited each cycle
system.switch_cpus.commit.committed_per_cycle::2        59710      9.98%     66.90% # Number of insts commited each cycle
system.switch_cpus.commit.committed_per_cycle::3        60116     10.05%     76.95% # Number of insts commited each cycle
system.switch_cpus.commit.committed_per_cycle::4          649      0.11%     77.05% # Number of insts commited each cycle
system.switch_cpus.commit.committed_per_cycle::5        38811      6.49%     83.54% # Number of insts commited each cycle
system.switch_cpus.commit.committed_per_cycle::6        57933      9.68%     93.23% # Number of insts commited each cycle
system.switch_cpus.commit.committed_per_cycle::7           59      0.01%     93.24% # Number of insts commited each cycle
system.switch_cpus.commit.committed_per_cycle::8        40471      6.76%    100.00% # Number of insts commited each cycle
system.switch_cpus.commit.committed_per_cycle::overflows            0      0.00%    100.00% # Number of insts commited each cycle
system.switch_cpus.commit.committed_per_cycle::min_value            0                       # Number of insts commited each cycle
system.switch_cpus.commit.committed_per_cycle::max_value            8                       # Number of insts commited each cycle
system.switch_cpus.commit.committed_per_cycle::total       598260                       # Number of insts commited each cycle
system.switch_cpus.commit.fp_insts                  0                       # Number of committed floating point instructions.
system.switch_cpus.commit.function_calls            9                       # Number of function calls committed.
system.switch_cpus.commit.int_insts           1344570                       # Number of committed integer instructions.
system.switch_cpus.commit.loads                412295                       # Number of loads committed
system.switch_cpus.commit.membars                   0                       # Number of memory barriers committed
system.switch_cpus.commit.op_class_0::No_OpClass            0      0.00%      0.00% # Class of committed instruction
system.switch_cpus.commit.op_class_0::IntAlu       833843     62.00%     62.00% # Class of committed instruction
system.switch_cpus.commit.op_class_0::IntMult          300      0.02%     62.02% # Class of committed instruction
system.switch_cpus.commit.op_class_0::IntDiv            0      0.00%     62.02% # Class of committed instruction
system.switch_cpus.commit.op_class_0::FloatAdd            0      0.00%     62.02% # Class of committed instruction
system.switch_cpus.commit.op_class_0::FloatCmp            0      0.00%     62.02% # Class of committed instruction
system.switch_cpus.commit.op_class_0::FloatCvt            0      0.00%     62.02% # Class of committed instruction
system.switch_cpus.commit.op_class_0::FloatMult            0      0.00%     62.02% # Class of committed instruction
system.switch_cpus.commit.op_class_0::FloatMultAcc            0      0.00%     62.02% # Class of committed instruction
system.switch_cpus.commit.op_class_0::FloatDiv            0      0.00%     62.02% # Class of committed instruction
system.switch_cpus.commit.op_class_0::FloatMisc            0      0.00%     62.02% # Class of committed instruction
system.switch_cpus.commit.op_class_0::FloatSqrt            0      0.00%     62.02% # Class of committed instruction
system.switch_cpus.commit.op_class_0::SimdAdd            0      0.00%     62.02% # Class of committed instruction
system.switch_cpus.commit.op_class_0::SimdAddAcc            0      0.00%     62.02% # Class of committed instruction
system.switch_cpus.commit.op_class_0::SimdAlu            0      0.00%     62.02% # Class of committed instruction
system.switch_cpus.commit.op_class_0::SimdCmp            0      0.00%     62.02% # Class of committed instruction
system.switch_cpus.commit.op_class_0::SimdCvt            0      0.00%     62.02% # Class of committed instruction
system.switch_cpus.commit.op_class_0::SimdMisc            0      0.00%     62.02% # Class of committed instruction
system.switch_cpus.commit.op_class_0::SimdMult            0      0.00%     62.02% # Class of committed instruction
system.switch_cpus.commit.op_class_0::SimdMultAcc            0      0.00%     62.02% # Class of committed instruction
system.switch_cpus.commit.op_class_0::SimdShift            0      0.00%     62.02% # Class of committed instruction
system.switch_cpus.commit.op_class_0::SimdShiftAcc            0      0.00%     62.02% # Class of committed instruction
system.switch_cpus.commit.op_class_0::SimdDiv            0      0.00%     62.02% # Class of committed instruction
system.switch_cpus.commit.op_class_0::SimdSqrt            0      0.00%     62.02% # Class of committed instruction
system.switch_cpus.commit.op_class_0::SimdFloatAdd            0      0.00%     62.02% # Class of committed instruction
system.switch_cpus.commit.op_class_0::SimdFloatAlu            0      0.00%     62.02% # Class of committed instruction
system.switch_cpus.commit.op_class_0::SimdFloatCmp            0      0.00%     62.02% # Class of committed instruction
system.switch_cpus.commit.op_class_0::SimdFloatCvt            0      0.00%     62.02% # Class of committed instruction
system.switch_cpus.commit.op_class_0::SimdFloatDiv            0      0.00%     62.02% # Class of committed instruction
system.switch_cpus.commit.op_class_0::SimdFloatMisc            0      0.00%     62.02% # Class of committed instruction
system.switch_cpus.commit.op_class_0::SimdFloatMult            0      0.00%     62.02% # Class of committed instruction
system.switch_cpus.commit.op_class_0::SimdFloatMultAcc            0      0.00%     62.02% # Class of committed instruction
system.switch_cpus.commit.op_class_0::SimdFloatSqrt            0      0.00%     62.02% # Class of committed instruction
system.switch_cpus.commit.op_class_0::SimdReduceAdd            0      0.00%     62.02% # Class of committed instruction
system.switch_cpus.commit.op_class_0::SimdReduceAlu            0      0.00%     62.02% # Class of committed instruction
system.switch_cpus.commit.op_class_0::SimdReduceCmp            0      0.00%     62.02% # Class of committed instruction
system.switch_cpus.commit.op_class_0::SimdFloatReduceAdd            0      0.00%     62.02% # Class of committed instruction
system.switch_cpus.commit.op_class_0::SimdFloatReduceCmp            0      0.00%     62.02% # Class of committed instruction
system.switch_cpus.commit.op_class_0::SimdAes            0      0.00%     62.02% # Class of committed instruction
system.switch_cpus.commit.op_class_0::SimdAesMix            0      0.00%     62.02% # Class of committed instruction
system.switch_cpus.commit.op_class_0::SimdSha1Hash            0      0.00%     62.02% # Class of committed instruction
system.switch_cpus.commit.op_class_0::SimdSha1Hash2            0      0.00%     62.02% # Class of committed instruction
system.switch_cpus.commit.op_class_0::SimdSha256Hash            0      0.00%     62.02% # Class of committed instruction
system.switch_cpus.commit.op_class_0::SimdSha256Hash2            0      0.00%     62.02% # Class of committed instruction
system.switch_cpus.commit.op_class_0::SimdShaSigma2            0      0.00%     62.02% # Class of committed instruction
system.switch_cpus.commit.op_class_0::SimdShaSigma3            0      0.00%     62.02% # Class of committed instruction
system.switch_cpus.commit.op_class_0::SimdPredAlu            0      0.00%     62.02% # Class of committed instruction
system.switch_cpus.commit.op_class_0::MemRead       412295     30.66%     92.68% # Class of committed instruction
system.switch_cpus.commit.op_class_0::MemWrite        98512      7.32%    100.00% # Class of committed instruction
system.switch_cpus.commit.op_class_0::FloatMemRead            0      0.00%    100.00% # Class of committed instruction
system.switch_cpus.commit.op_class_0::FloatMemWrite            0      0.00%    100.00% # Class of committed instruction
system.switch_cpus.commit.op_class_0::IprAccess            0      0.00%    100.00% # Class of committed instruction
system.switch_cpus.commit.op_class_0::InstPrefetch            0      0.00%    100.00% # Class of committed instruction
system.switch_cpus.commit.op_class_0::total      1344950                       # Class of committed instruction
system.switch_cpus.commit.refs                 510807                       # Number of memory references committed
system.switch_cpus.commit.swp_count                 0                       # Number of s/w prefetches committed
system.switch_cpus.commit.vec_insts                 0                       # Number of committed Vector instructions.
system.switch_cpus.committedInsts             1000000                       # Number of Instructions Simulated
system.switch_cpus.committedOps               1344950                       # Number of Ops (including micro ops) Simulated
system.switch_cpus.cpi                       0.606637                       # CPI: Cycles Per Instruction
system.switch_cpus.cpi_total                 0.606637                       # CPI: Total CPI of All Threads
system.switch_cpus.decode.BlockedCycles        380380                       # Number of cycles decode is blocked
system.switch_cpus.decode.DecodedInsts        1409322                       # Number of instructions handled by decode
system.switch_cpus.decode.IdleCycles            46800                       # Number of cycles decode is idle
system.switch_cpus.decode.RunCycles             66822                       # Number of cycles decode is running
system.switch_cpus.decode.SquashCycles           1024                       # Number of cycles decode is squashing
system.switch_cpus.decode.UnblockCycles        111012                       # Number of cycles decode is unblocking
system.switch_cpus.dtb.rdAccesses              418402                       # TLB accesses on read requests
system.switch_cpus.dtb.rdMisses                    67                       # TLB misses on read requests
system.switch_cpus.dtb.wrAccesses               98891                       # TLB accesses on write requests
system.switch_cpus.dtb.wrMisses                     0                       # TLB misses on write requests
system.switch_cpus.fetch.Branches               66080                       # Number of branches that fetch encountered
system.switch_cpus.fetch.CacheLines             86523                       # Number of cache lines fetched
system.switch_cpus.fetch.Cycles                517517                       # Number of cycles fetch has run and was not squashing or blocked
system.switch_cpus.fetch.IcacheSquashes           204                       # Number of outstanding Icache misses that were squashed
system.switch_cpus.fetch.Insts                1056601                       # Number of instructions fetch has processed
system.switch_cpus.fetch.SquashCycles            2048                       # Number of cycles fetch has spent squashing
system.switch_cpus.fetch.branchRate          0.108928                       # Number of branch fetches per cycle
system.switch_cpus.fetch.icacheStallCycles        87508                       # Number of cycles fetch is stalled on an Icache miss
system.switch_cpus.fetch.predictedBranches        23011                       # Number of branches that fetch has predicted taken
system.switch_cpus.fetch.rate                1.741735                       # Number of inst fetches per cycle
system.switch_cpus.fetch.rateDist::samples       606049                       # Number of instructions fetched each cycle (Total)
system.switch_cpus.fetch.rateDist::mean      2.364664                       # Number of instructions fetched each cycle (Total)
system.switch_cpus.fetch.rateDist::stdev     3.331954                       # Number of instructions fetched each cycle (Total)
system.switch_cpus.fetch.rateDist::underflows            0      0.00%      0.00% # Number of instructions fetched each cycle (Total)
system.switch_cpus.fetch.rateDist::0           381600     62.97%     62.97% # Number of instructions fetched each cycle (Total)
system.switch_cpus.fetch.rateDist::1             1331      0.22%     63.18% # Number of instructions fetched each cycle (Total)
system.switch_cpus.fetch.rateDist::2            22714      3.75%     66.93% # Number of instructions fetched each cycle (Total)
system.switch_cpus.fetch.rateDist::3             2188      0.36%     67.29% # Number of instructions fetched each cycle (Total)
system.switch_cpus.fetch.rateDist::4            18851      3.11%     70.40% # Number of instructions fetched each cycle (Total)
system.switch_cpus.fetch.rateDist::5            23799      3.93%     74.33% # Number of instructions fetched each cycle (Total)
system.switch_cpus.fetch.rateDist::6            19813      3.27%     77.60% # Number of instructions fetched each cycle (Total)
system.switch_cpus.fetch.rateDist::7            19522      3.22%     80.82% # Number of instructions fetched each cycle (Total)
system.switch_cpus.fetch.rateDist::8           116231     19.18%    100.00% # Number of instructions fetched each cycle (Total)
system.switch_cpus.fetch.rateDist::overflows            0      0.00%    100.00% # Number of instructions fetched each cycle (Total)
system.switch_cpus.fetch.rateDist::min_value            0                       # Number of instructions fetched each cycle (Total)
system.switch_cpus.fetch.rateDist::max_value            8                       # Number of instructions fetched each cycle (Total)
system.switch_cpus.fetch.rateDist::total       606049                       # Number of instructions fetched each cycle (Total)
system.switch_cpus.fp_regfile_writes               56                       # number of floating regfile writes
system.switch_cpus.idleCycles                     588                       # Total number of cycles that the CPU has spent unscheduled due to idling
system.switch_cpus.iew.branchMispredicts         1041                       # Number of branch mispredicts detected at execute
system.switch_cpus.iew.exec_branches            61929                       # Number of branches executed
system.switch_cpus.iew.exec_nop                     0                       # number of nop insts executed
system.switch_cpus.iew.exec_rate             2.251144                       # Inst execution rate
system.switch_cpus.iew.exec_refs               517289                       # number of memory reference insts executed
system.switch_cpus.iew.exec_stores              98891                       # Number of stores executed
system.switch_cpus.iew.exec_swp                     0                       # number of swp insts executed
system.switch_cpus.iew.iewBlockCycles            7107                       # Number of cycles IEW is blocking
system.switch_cpus.iew.iewDispLoadInsts        427951                       # Number of dispatched load instructions
system.switch_cpus.iew.iewDispNonSpecInsts            0                       # Number of dispatched non-speculative instructions
system.switch_cpus.iew.iewDispSquashedInsts          103                       # Number of squashed instructions skipped by dispatch
system.switch_cpus.iew.iewDispStoreInsts       102783                       # Number of dispatched store instructions
system.switch_cpus.iew.iewDispatchedInsts      1397970                       # Number of instructions dispatched to IQ
system.switch_cpus.iew.iewExecLoadInsts        418398                       # Number of load instructions executed
system.switch_cpus.iew.iewExecSquashedInsts         1860                       # Number of squashed instructions skipped in execute
system.switch_cpus.iew.iewExecutedInsts       1365627                       # Number of executed instructions
system.switch_cpus.iew.iewIQFullEvents            742                       # Number of times the IQ has become full, causing a stall
system.switch_cpus.iew.iewIdleCycles                0                       # Number of cycles IEW is idle
system.switch_cpus.iew.iewLSQFullEvents            32                       # Number of times the LSQ has become full, causing a stall
system.switch_cpus.iew.iewSquashCycles           1024                       # Number of cycles IEW is squashing
system.switch_cpus.iew.iewUnblockCycles           773                       # Number of cycles IEW is unblocking
system.switch_cpus.iew.lsq.thread0.blockedLoads            0                       # Number of blocked loads due to partial load-store forwarding
system.switch_cpus.iew.lsq.thread0.cacheBlocked            0                       # Number of times an access to memory failed due to the cache being blocked
system.switch_cpus.iew.lsq.thread0.forwLoads       119969                       # Number of loads that had data forwarded from stores
system.switch_cpus.iew.lsq.thread0.ignoredResponses           11                       # Number of memory responses ignored because the instruction is squashed
system.switch_cpus.iew.lsq.thread0.invAddrLoads            0                       # Number of loads ignored due to an invalid address
system.switch_cpus.iew.lsq.thread0.invAddrSwpfs            0                       # Number of software prefetches ignored due to an invalid address
system.switch_cpus.iew.lsq.thread0.memOrderViolation           73                       # Number of memory ordering violations
system.switch_cpus.iew.lsq.thread0.rescheduledLoads            0                       # Number of loads that were rescheduled
system.switch_cpus.iew.lsq.thread0.squashedLoads        15630                       # Number of loads squashed
system.switch_cpus.iew.lsq.thread0.squashedStores         4263                       # Number of stores squashed
system.switch_cpus.iew.memOrderViolationEvents           73                       # Number of memory order violations
system.switch_cpus.iew.predictedNotTakenIncorrect          927                       # Number of branches that were predicted not taken incorrectly
system.switch_cpus.iew.predictedTakenIncorrect          114                       # Number of branches that were predicted taken incorrectly
system.switch_cpus.iew.wb_consumers           1352956                       # num instructions consuming a value
system.switch_cpus.iew.wb_count               1364545                       # cumulative count of insts written-back
system.switch_cpus.iew.wb_fanout             0.866451                       # average fanout of values written-back
system.switch_cpus.iew.wb_producers           1172270                       # num instructions producing a value
system.switch_cpus.iew.wb_rate               2.249360                       # insts written-back per cycle
system.switch_cpus.iew.wb_sent                1364980                       # cumulative count of insts sent to commit
system.switch_cpus.int_regfile_reads          2284313                       # number of integer regfile reads
system.switch_cpus.int_regfile_writes         1203580                       # number of integer regfile writes
system.switch_cpus.ipc                       1.648432                       # IPC: Instructions Per Cycle
system.switch_cpus.ipc_total                 1.648432                       # IPC: Total IPC of All Threads
system.switch_cpus.iq.FU_type_0::No_OpClass            7      0.00%      0.00% # Type of FU issued
system.switch_cpus.iq.FU_type_0::IntAlu        848638     62.06%     62.06% # Type of FU issued
system.switch_cpus.iq.FU_type_0::IntMult          306      0.02%     62.08% # Type of FU issued
system.switch_cpus.iq.FU_type_0::IntDiv             0      0.00%     62.08% # Type of FU issued
system.switch_cpus.iq.FU_type_0::FloatAdd            0      0.00%     62.08% # Type of FU issued
system.switch_cpus.iq.FU_type_0::FloatCmp            0      0.00%     62.08% # Type of FU issued
system.switch_cpus.iq.FU_type_0::FloatCvt            0      0.00%     62.08% # Type of FU issued
system.switch_cpus.iq.FU_type_0::FloatMult            0      0.00%     62.08% # Type of FU issued
system.switch_cpus.iq.FU_type_0::FloatMultAcc            0      0.00%     62.08% # Type of FU issued
system.switch_cpus.iq.FU_type_0::FloatDiv            0      0.00%     62.08% # Type of FU issued
system.switch_cpus.iq.FU_type_0::FloatMisc            0      0.00%     62.08% # Type of FU issued
system.switch_cpus.iq.FU_type_0::FloatSqrt            0      0.00%     62.08% # Type of FU issued
system.switch_cpus.iq.FU_type_0::SimdAdd            0      0.00%     62.08% # Type of FU issued
system.switch_cpus.iq.FU_type_0::SimdAddAcc            0      0.00%     62.08% # Type of FU issued
system.switch_cpus.iq.FU_type_0::SimdAlu            0      0.00%     62.08% # Type of FU issued
system.switch_cpus.iq.FU_type_0::SimdCmp            0      0.00%     62.08% # Type of FU issued
system.switch_cpus.iq.FU_type_0::SimdCvt            0      0.00%     62.08% # Type of FU issued
system.switch_cpus.iq.FU_type_0::SimdMisc            0      0.00%     62.08% # Type of FU issued
system.switch_cpus.iq.FU_type_0::SimdMult            0      0.00%     62.08% # Type of FU issued
system.switch_cpus.iq.FU_type_0::SimdMultAcc            0      0.00%     62.08% # Type of FU issued
system.switch_cpus.iq.FU_type_0::SimdShift            0      0.00%     62.08% # Type of FU issued
system.switch_cpus.iq.FU_type_0::SimdShiftAcc            0      0.00%     62.08% # Type of FU issued
system.switch_cpus.iq.FU_type_0::SimdDiv            0      0.00%     62.08% # Type of FU issued
system.switch_cpus.iq.FU_type_0::SimdSqrt            0      0.00%     62.08% # Type of FU issued
system.switch_cpus.iq.FU_type_0::SimdFloatAdd            0      0.00%     62.08% # Type of FU issued
system.switch_cpus.iq.FU_type_0::SimdFloatAlu            0      0.00%     62.08% # Type of FU issued
system.switch_cpus.iq.FU_type_0::SimdFloatCmp            0      0.00%     62.08% # Type of FU issued
system.switch_cpus.iq.FU_type_0::SimdFloatCvt            0      0.00%     62.08% # Type of FU issued
system.switch_cpus.iq.FU_type_0::SimdFloatDiv            0      0.00%     62.08% # Type of FU issued
system.switch_cpus.iq.FU_type_0::SimdFloatMisc            0      0.00%     62.08% # Type of FU issued
system.switch_cpus.iq.FU_type_0::SimdFloatMult            0      0.00%     62.08% # Type of FU issued
system.switch_cpus.iq.FU_type_0::SimdFloatMultAcc            0      0.00%     62.08% # Type of FU issued
system.switch_cpus.iq.FU_type_0::SimdFloatSqrt            0      0.00%     62.08% # Type of FU issued
system.switch_cpus.iq.FU_type_0::SimdReduceAdd            0      0.00%     62.08% # Type of FU issued
system.switch_cpus.iq.FU_type_0::SimdReduceAlu            0      0.00%     62.08% # Type of FU issued
system.switch_cpus.iq.FU_type_0::SimdReduceCmp            0      0.00%     62.08% # Type of FU issued
system.switch_cpus.iq.FU_type_0::SimdFloatReduceAdd            0      0.00%     62.08% # Type of FU issued
system.switch_cpus.iq.FU_type_0::SimdFloatReduceCmp            0      0.00%     62.08% # Type of FU issued
system.switch_cpus.iq.FU_type_0::SimdAes            0      0.00%     62.08% # Type of FU issued
system.switch_cpus.iq.FU_type_0::SimdAesMix            0      0.00%     62.08% # Type of FU issued
system.switch_cpus.iq.FU_type_0::SimdSha1Hash            0      0.00%     62.08% # Type of FU issued
system.switch_cpus.iq.FU_type_0::SimdSha1Hash2            0      0.00%     62.08% # Type of FU issued
system.switch_cpus.iq.FU_type_0::SimdSha256Hash            0      0.00%     62.08% # Type of FU issued
system.switch_cpus.iq.FU_type_0::SimdSha256Hash2            0      0.00%     62.08% # Type of FU issued
system.switch_cpus.iq.FU_type_0::SimdShaSigma2            0      0.00%     62.08% # Type of FU issued
system.switch_cpus.iq.FU_type_0::SimdShaSigma3            0      0.00%     62.08% # Type of FU issued
system.switch_cpus.iq.FU_type_0::SimdPredAlu            0      0.00%     62.08% # Type of FU issued
system.switch_cpus.iq.FU_type_0::MemRead       419233     30.66%     92.74% # Type of FU issued
system.switch_cpus.iq.FU_type_0::MemWrite        99303      7.26%    100.00% # Type of FU issued
system.switch_cpus.iq.FU_type_0::FloatMemRead            0      0.00%    100.00% # Type of FU issued
system.switch_cpus.iq.FU_type_0::FloatMemWrite            0      0.00%    100.00% # Type of FU issued
system.switch_cpus.iq.FU_type_0::IprAccess            0      0.00%    100.00% # Type of FU issued
system.switch_cpus.iq.FU_type_0::InstPrefetch            0      0.00%    100.00% # Type of FU issued
system.switch_cpus.iq.FU_type_0::total        1367487                       # Type of FU issued
system.switch_cpus.iq.fp_alu_accesses               0                       # Number of floating point alu accesses
system.switch_cpus.iq.fp_inst_queue_reads            0                       # Number of floating instruction queue reads
system.switch_cpus.iq.fp_inst_queue_wakeup_accesses            0                       # Number of floating instruction queue wakeup accesses
system.switch_cpus.iq.fp_inst_queue_writes            0                       # Number of floating instruction queue writes
system.switch_cpus.iq.fu_busy_cnt               20594                       # FU busy when requested
system.switch_cpus.iq.fu_busy_rate           0.015060                       # FU busy rate (busy events/executed inst)
system.switch_cpus.iq.fu_full::No_OpClass            0      0.00%      0.00% # attempts to use FU when none available
system.switch_cpus.iq.fu_full::IntAlu             159      0.77%      0.77% # attempts to use FU when none available
system.switch_cpus.iq.fu_full::IntMult              0      0.00%      0.77% # attempts to use FU when none available
system.switch_cpus.iq.fu_full::IntDiv               0      0.00%      0.77% # attempts to use FU when none available
system.switch_cpus.iq.fu_full::FloatAdd             0      0.00%      0.77% # attempts to use FU when none available
system.switch_cpus.iq.fu_full::FloatCmp             0      0.00%      0.77% # attempts to use FU when none available
system.switch_cpus.iq.fu_full::FloatCvt             0      0.00%      0.77% # attempts to use FU when none available
system.switch_cpus.iq.fu_full::FloatMult            0      0.00%      0.77% # attempts to use FU when none available
system.switch_cpus.iq.fu_full::FloatMultAcc            0      0.00%      0.77% # attempts to use FU when none available
system.switch_cpus.iq.fu_full::FloatDiv             0      0.00%      0.77% # attempts to use FU when none available
system.switch_cpus.iq.fu_full::FloatMisc            0      0.00%      0.77% # attempts to use FU when none available
system.switch_cpus.iq.fu_full::FloatSqrt            0      0.00%      0.77% # attempts to use FU when none available
system.switch_cpus.iq.fu_full::SimdAdd              0      0.00%      0.77% # attempts to use FU when none available
system.switch_cpus.iq.fu_full::SimdAddAcc            0      0.00%      0.77% # attempts to use FU when none available
system.switch_cpus.iq.fu_full::SimdAlu              0      0.00%      0.77% # attempts to use FU when none available
system.switch_cpus.iq.fu_full::SimdCmp              0      0.00%      0.77% # attempts to use FU when none available
system.switch_cpus.iq.fu_full::SimdCvt              0      0.00%      0.77% # attempts to use FU when none available
system.switch_cpus.iq.fu_full::SimdMisc             0      0.00%      0.77% # attempts to use FU when none available
system.switch_cpus.iq.fu_full::SimdMult             0      0.00%      0.77% # attempts to use FU when none available
system.switch_cpus.iq.fu_full::SimdMultAcc            0      0.00%      0.77% # attempts to use FU when none available
system.switch_cpus.iq.fu_full::SimdShift            0      0.00%      0.77% # attempts to use FU when none available
system.switch_cpus.iq.fu_full::SimdShiftAcc            0      0.00%      0.77% # attempts to use FU when none available
system.switch_cpus.iq.fu_full::SimdDiv              0      0.00%      0.77% # attempts to use FU when none available
system.switch_cpus.iq.fu_full::SimdSqrt             0      0.00%      0.77% # attempts to use FU when none available
system.switch_cpus.iq.fu_full::SimdFloatAdd            0      0.00%      0.77% # attempts to use FU when none available
system.switch_cpus.iq.fu_full::SimdFloatAlu            0      0.00%      0.77% # attempts to use FU when none available
system.switch_cpus.iq.fu_full::SimdFloatCmp            0      0.00%      0.77% # attempts to use FU when none available
system.switch_cpus.iq.fu_full::SimdFloatCvt            0      0.00%      0.77% # attempts to use FU when none available
system.switch_cpus.iq.fu_full::SimdFloatDiv            0      0.00%      0.77% # attempts to use FU when none available
system.switch_cpus.iq.fu_full::SimdFloatMisc            0      0.00%      0.77% # attempts to use FU when none available
system.switch_cpus.iq.fu_full::SimdFloatMult            0      0.00%      0.77% # attempts to use FU when none available
system.switch_cpus.iq.fu_full::SimdFloatMultAcc            0      0.00%      0.77% # attempts to use FU when none available
system.switch_cpus.iq.fu_full::SimdFloatSqrt            0      0.00%      0.77% # attempts to use FU when none available
system.switch_cpus.iq.fu_full::SimdReduceAdd            0      0.00%      0.77% # attempts to use FU when none available
system.switch_cpus.iq.fu_full::SimdReduceAlu            0      0.00%      0.77% # attempts to use FU when none available
system.switch_cpus.iq.fu_full::SimdReduceCmp            0      0.00%      0.77% # attempts to use FU when none available
system.switch_cpus.iq.fu_full::SimdFloatReduceAdd            0      0.00%      0.77% # attempts to use FU when none available
system.switch_cpus.iq.fu_full::SimdFloatReduceCmp            0      0.00%      0.77% # attempts to use FU when none available
system.switch_cpus.iq.fu_full::SimdAes              0      0.00%      0.77% # attempts to use FU when none available
system.switch_cpus.iq.fu_full::SimdAesMix            0      0.00%      0.77% # attempts to use FU when none available
system.switch_cpus.iq.fu_full::SimdSha1Hash            0      0.00%      0.77% # attempts to use FU when none available
system.switch_cpus.iq.fu_full::SimdSha1Hash2            0      0.00%      0.77% # attempts to use FU when none available
system.switch_cpus.iq.fu_full::SimdSha256Hash            0      0.00%      0.77% # attempts to use FU when none available
system.switch_cpus.iq.fu_full::SimdSha256Hash2            0      0.00%      0.77% # attempts to use FU when none available
system.switch_cpus.iq.fu_full::SimdShaSigma2            0      0.00%      0.77% # attempts to use FU when none available
system.switch_cpus.iq.fu_full::SimdShaSigma3            0      0.00%      0.77% # attempts to use FU when none available
system.switch_cpus.iq.fu_full::SimdPredAlu            0      0.00%      0.77% # attempts to use FU when none available
system.switch_cpus.iq.fu_full::MemRead          20418     99.15%     99.92% # attempts to use FU when none available
system.switch_cpus.iq.fu_full::MemWrite            17      0.08%    100.00% # attempts to use FU when none available
system.switch_cpus.iq.fu_full::FloatMemRead            0      0.00%    100.00% # attempts to use FU when none available
system.switch_cpus.iq.fu_full::FloatMemWrite            0      0.00%    100.00% # attempts to use FU when none available
system.switch_cpus.iq.fu_full::IprAccess            0      0.00%    100.00% # attempts to use FU when none available
system.switch_cpus.iq.fu_full::InstPrefetch            0      0.00%    100.00% # attempts to use FU when none available
system.switch_cpus.iq.int_alu_accesses        1388074                       # Number of integer alu accesses
system.switch_cpus.iq.int_inst_queue_reads      3361654                       # Number of integer instruction queue reads
system.switch_cpus.iq.int_inst_queue_wakeup_accesses      1364545                       # Number of integer instruction queue wakeup accesses
system.switch_cpus.iq.int_inst_queue_writes      1450977                       # Number of integer instruction queue writes
system.switch_cpus.iq.iqInstsAdded            1397970                       # Number of instructions added to the IQ (excludes non-spec)
system.switch_cpus.iq.iqInstsIssued           1367487                       # Number of instructions issued
system.switch_cpus.iq.iqSquashedInstsExamined        52934                       # Number of squashed instructions iterated over during squash; mainly for profiling
system.switch_cpus.iq.iqSquashedInstsIssued           37                       # Number of squashed instructions issued
system.switch_cpus.iq.iqSquashedOperandsExamined        96880                       # Number of squashed operands that are examined and possibly removed from graph
system.switch_cpus.iq.issued_per_cycle::samples       606049                       # Number of insts issued each cycle
system.switch_cpus.iq.issued_per_cycle::mean     2.256397                       # Number of insts issued each cycle
system.switch_cpus.iq.issued_per_cycle::stdev     1.501417                       # Number of insts issued each cycle
system.switch_cpus.iq.issued_per_cycle::underflows            0      0.00%      0.00% # Number of insts issued each cycle
system.switch_cpus.iq.issued_per_cycle::0        84480     13.94%     13.94% # Number of insts issued each cycle
system.switch_cpus.iq.issued_per_cycle::1       130425     21.52%     35.46% # Number of insts issued each cycle
system.switch_cpus.iq.issued_per_cycle::2       119519     19.72%     55.18% # Number of insts issued each cycle
system.switch_cpus.iq.issued_per_cycle::3       136976     22.60%     77.78% # Number of insts issued each cycle
system.switch_cpus.iq.issued_per_cycle::4        92055     15.19%     92.97% # Number of insts issued each cycle
system.switch_cpus.iq.issued_per_cycle::5        39503      6.52%     99.49% # Number of insts issued each cycle
system.switch_cpus.iq.issued_per_cycle::6         1360      0.22%     99.71% # Number of insts issued each cycle
system.switch_cpus.iq.issued_per_cycle::7          647      0.11%     99.82% # Number of insts issued each cycle
system.switch_cpus.iq.issued_per_cycle::8         1084      0.18%    100.00% # Number of insts issued each cycle
system.switch_cpus.iq.issued_per_cycle::overflows            0      0.00%    100.00% # Number of insts issued each cycle
system.switch_cpus.iq.issued_per_cycle::min_value            0                       # Number of insts issued each cycle
system.switch_cpus.iq.issued_per_cycle::max_value            8                       # Number of insts issued each cycle
system.switch_cpus.iq.issued_per_cycle::total       606049                       # Number of insts issued each cycle
system.switch_cpus.iq.rate                   2.254210                       # Inst issue rate
system.switch_cpus.iq.vec_alu_accesses              0                       # Number of vector alu accesses
system.switch_cpus.iq.vec_inst_queue_reads            0                       # Number of vector instruction queue reads
system.switch_cpus.iq.vec_inst_queue_wakeup_accesses            0                       # Number of vector instruction queue wakeup accesses
system.switch_cpus.iq.vec_inst_queue_writes            0                       # Number of vector instruction queue writes
system.switch_cpus.itb.rdAccesses                   0                       # TLB accesses on read requests
system.switch_cpus.itb.rdMisses                     0                       # TLB misses on read requests
system.switch_cpus.itb.wrAccesses               86523                       # TLB accesses on write requests
system.switch_cpus.itb.wrMisses                     1                       # TLB misses on write requests
system.switch_cpus.memDep0.conflictingLoads       223233                       # Number of conflicting loads.
system.switch_cpus.memDep0.conflictingStores        79863                       # Number of conflicting stores.
system.switch_cpus.memDep0.insertedLoads       427951                       # Number of loads inserted to the mem dependence unit.
system.switch_cpus.memDep0.insertedStores       102783                       # Number of stores inserted to the mem dependence unit.
system.switch_cpus.misc_regfile_reads          643166                       # number of misc regfile reads
system.switch_cpus.misc_regfile_writes              1                       # number of misc regfile writes
system.switch_cpus.numCycles                   606637                       # number of cpu cycles simulated
system.switch_cpus.numWorkItemsCompleted            0                       # number of work items this cpu completed
system.switch_cpus.numWorkItemsStarted              0                       # number of work items this cpu started
system.switch_cpus.rename.BlockCycles           58263                       # Number of cycles rename is blocking
system.switch_cpus.rename.CommittedMaps       1736891                       # Number of HB maps that are committed
system.switch_cpus.rename.IQFullEvents         315802                       # Number of times rename has blocked due to IQ full
system.switch_cpus.rename.IdleCycles            93736                       # Number of cycles rename is idle
system.switch_cpus.rename.LQFullEvents            684                       # Number of times rename has blocked due to LQ full
system.switch_cpus.rename.ROBFullEvents             1                       # Number of times rename has blocked due to ROB full
system.switch_cpus.rename.RenameLookups       3344810                       # Number of register rename lookups that rename has made
system.switch_cpus.rename.RenamedInsts        1404483                       # Number of instructions processed by rename
system.switch_cpus.rename.RenamedOperands      1810039                       # Number of destination operands rename has renamed
system.switch_cpus.rename.RunCycles            126458                       # Number of cycles rename is running
system.switch_cpus.rename.SquashCycles           1024                       # Number of cycles rename is squashing
system.switch_cpus.rename.UnblockCycles        326557                       # Number of cycles rename is unblocking
system.switch_cpus.rename.UndoneMaps            73022                       # Number of HB maps that are undone due to squashing
system.switch_cpus.rename.int_rename_lookups      2367244                       # Number of integer rename lookups
system.switch_cpus.rename.serializeStallCycles            0                       # count of cycles rename stalled for serializing inst
system.switch_cpus.rename.serializingInsts            0                       # count of serializing insts renamed
system.switch_cpus.rename.skidInsts            682776                       # count of insts added to the skid buffer
system.switch_cpus.rename.tempSerializingInsts            0                       # count of temporary serializing insts renamed
system.switch_cpus.rob.rob_reads              1955674                       # The number of ROB reads
system.switch_cpus.rob.rob_writes             2803699                       # The number of ROB writes
system.switch_cpus.timesIdled                       6                       # Number of times that the entire CPU went into an idle state and unscheduled itself
system.tol2bus.snoop_filter.hit_multi_requests            0                       # Number of requests hitting in the snoop filter with multiple (>1) holders of the requested data.
system.tol2bus.snoop_filter.hit_multi_snoops            0                       # Number of snoops hitting in the snoop filter with multiple (>1) holders of the requested data.
system.tol2bus.snoop_filter.hit_single_requests            2                       # Number of requests hitting in the snoop filter with a single holder of the requested data.
system.tol2bus.snoop_filter.hit_single_snoops            0                       # Number of snoops hitting in the snoop filter with a single holder of the requested data.
system.tol2bus.snoop_filter.tot_requests           28                       # Total number of requests made to the snoop filter.
system.tol2bus.snoop_filter.tot_snoops              0                       # Total number of snoops made to the snoop filter.
system.membus.pwrStateResidencyTicks::UNDEFINED 713234005000                       # Cumulative time (in ticks) in various power states
system.membus.trans_dist::ReadResp                 26                       # Transaction distribution
system.membus.trans_dist::ReadSharedReq            26                       # Transaction distribution
system.membus.pkt_count_system.l2.mem_side::system.mem_ctrls.port           52                       # Packet count per connected master and slave (bytes)
system.membus.pkt_count_system.l2.mem_side::total           52                       # Packet count per connected master and slave (bytes)
system.membus.pkt_count::total                     52                       # Packet count per connected master and slave (bytes)
system.membus.pkt_size_system.l2.mem_side::system.mem_ctrls.port         1664                       # Cumulative packet size per connected master and slave (bytes)
system.membus.pkt_size_system.l2.mem_side::total         1664                       # Cumulative packet size per connected master and slave (bytes)
system.membus.pkt_size::total                    1664                       # Cumulative packet size per connected master and slave (bytes)
system.membus.snoops                                0                       # Total snoops (count)
system.membus.snoopTraffic                          0                       # Total snoop traffic (bytes)
system.membus.snoop_fanout::samples                26                       # Request fanout histogram
system.membus.snoop_fanout::mean                    0                       # Request fanout histogram
system.membus.snoop_fanout::stdev                   0                       # Request fanout histogram
system.membus.snoop_fanout::underflows              0      0.00%      0.00% # Request fanout histogram
system.membus.snoop_fanout::0                      26    100.00%    100.00% # Request fanout histogram
system.membus.snoop_fanout::1                       0      0.00%    100.00% # Request fanout histogram
system.membus.snoop_fanout::overflows               0      0.00%    100.00% # Request fanout histogram
system.membus.snoop_fanout::min_value               0                       # Request fanout histogram
system.membus.snoop_fanout::max_value               0                       # Request fanout histogram
system.membus.snoop_fanout::total                  26                       # Request fanout histogram
system.membus.reqLayer2.occupancy               28000                       # Layer occupancy (ticks)
system.membus.reqLayer2.utilization               0.0                       # Layer utilization (%)
system.membus.respLayer1.occupancy             117750                       # Layer occupancy (ticks)
system.membus.respLayer1.utilization              0.0                       # Layer utilization (%)
system.switch_cpus.pwrStateResidencyTicks::OFF    303328500                       # Cumulative time (in ticks) in various power states
system.switch_cpus.dtb.walker.pwrStateResidencyTicks::UNDEFINED 713234005000                       # Cumulative time (in ticks) in various power states
system.switch_cpus.itb.walker.pwrStateResidencyTicks::UNDEFINED 713234005000                       # Cumulative time (in ticks) in various power states
system.tol2bus.pwrStateResidencyTicks::UNDEFINED 713234005000                       # Cumulative time (in ticks) in various power states
system.tol2bus.trans_dist::ReadResp                28                       # Transaction distribution
system.tol2bus.trans_dist::ReadCleanReq            12                       # Transaction distribution
system.tol2bus.trans_dist::ReadSharedReq           16                       # Transaction distribution
system.tol2bus.pkt_count_system.cpu.icache.mem_side::system.l2.cpu_side           24                       # Packet count per connected master and slave (bytes)
system.tol2bus.pkt_count_system.cpu.dcache.mem_side::system.l2.cpu_side           32                       # Packet count per connected master and slave (bytes)
system.tol2bus.pkt_count::total                    56                       # Packet count per connected master and slave (bytes)
system.tol2bus.pkt_size_system.cpu.icache.mem_side::system.l2.cpu_side          768                       # Cumulative packet size per connected master and slave (bytes)
system.tol2bus.pkt_size_system.cpu.dcache.mem_side::system.l2.cpu_side         1024                       # Cumulative packet size per connected master and slave (bytes)
system.tol2bus.pkt_size::total                   1792                       # Cumulative packet size per connected master and slave (bytes)
system.tol2bus.snoops                               0                       # Total snoops (count)
system.tol2bus.snoopTraffic                         0                       # Total snoop traffic (bytes)
system.tol2bus.snoop_fanout::samples               28                       # Request fanout histogram
system.tol2bus.snoop_fanout::mean            0.071429                       # Request fanout histogram
system.tol2bus.snoop_fanout::stdev           0.262265                       # Request fanout histogram
system.tol2bus.snoop_fanout::underflows             0      0.00%      0.00% # Request fanout histogram
system.tol2bus.snoop_fanout::0                     26     92.86%     92.86% # Request fanout histogram
system.tol2bus.snoop_fanout::1                      2      7.14%    100.00% # Request fanout histogram
system.tol2bus.snoop_fanout::2                      0      0.00%    100.00% # Request fanout histogram
system.tol2bus.snoop_fanout::3                      0      0.00%    100.00% # Request fanout histogram
system.tol2bus.snoop_fanout::4                      0      0.00%    100.00% # Request fanout histogram
system.tol2bus.snoop_fanout::overflows              0      0.00%    100.00% # Request fanout histogram
system.tol2bus.snoop_fanout::min_value              0                       # Request fanout histogram
system.tol2bus.snoop_fanout::max_value              1                       # Request fanout histogram
system.tol2bus.snoop_fanout::total                 28                       # Request fanout histogram
system.tol2bus.reqLayer0.occupancy              12000                       # Layer occupancy (ticks)
system.tol2bus.reqLayer0.utilization              0.0                       # Layer utilization (%)
system.tol2bus.respLayer1.occupancy             22500                       # Layer occupancy (ticks)
system.tol2bus.respLayer1.utilization             0.0                       # Layer utilization (%)
system.tol2bus.respLayer0.occupancy             13500                       # Layer occupancy (ticks)
system.tol2bus.respLayer0.utilization             0.0                       # Layer utilization (%)
system.voltage_domain.voltage                       1                       # Voltage in Volts
system.clk_domain.clock                          1000                       # Clock period in ticks
system.l2.pwrStateResidencyTicks::UNDEFINED 713234005000                       # Cumulative time (in ticks) in various power states
system.l2.demand_hits::.switch_cpus.data            2                       # number of demand (read+write) hits
system.l2.demand_hits::total                        2                       # number of demand (read+write) hits
system.l2.overall_hits::.switch_cpus.data            2                       # number of overall hits
system.l2.overall_hits::total                       2                       # number of overall hits
system.l2.demand_misses::.cpu.inst                  3                       # number of demand (read+write) misses
system.l2.demand_misses::.cpu.data                  1                       # number of demand (read+write) misses
system.l2.demand_misses::.switch_cpus.inst            9                       # number of demand (read+write) misses
system.l2.demand_misses::.switch_cpus.data           13                       # number of demand (read+write) misses
system.l2.demand_misses::total                     26                       # number of demand (read+write) misses
system.l2.overall_misses::.cpu.inst                 3                       # number of overall misses
system.l2.overall_misses::.cpu.data                 1                       # number of overall misses
system.l2.overall_misses::.switch_cpus.inst            9                       # number of overall misses
system.l2.overall_misses::.switch_cpus.data           13                       # number of overall misses
system.l2.overall_misses::total                    26                       # number of overall misses
system.l2.demand_miss_latency::.switch_cpus.inst       673500                       # number of demand (read+write) miss cycles
system.l2.demand_miss_latency::.switch_cpus.data       999500                       # number of demand (read+write) miss cycles
system.l2.demand_miss_latency::total          1673000                       # number of demand (read+write) miss cycles
system.l2.overall_miss_latency::.switch_cpus.inst       673500                       # number of overall miss cycles
system.l2.overall_miss_latency::.switch_cpus.data       999500                       # number of overall miss cycles
system.l2.overall_miss_latency::total         1673000                       # number of overall miss cycles
system.l2.demand_accesses::.cpu.inst                3                       # number of demand (read+write) accesses
system.l2.demand_accesses::.cpu.data                1                       # number of demand (read+write) accesses
system.l2.demand_accesses::.switch_cpus.inst            9                       # number of demand (read+write) accesses
system.l2.demand_accesses::.switch_cpus.data           15                       # number of demand (read+write) accesses
system.l2.demand_accesses::total                   28                       # number of demand (read+write) accesses
system.l2.overall_accesses::.cpu.inst               3                       # number of overall (read+write) accesses
system.l2.overall_accesses::.cpu.data               1                       # number of overall (read+write) accesses
system.l2.overall_accesses::.switch_cpus.inst            9                       # number of overall (read+write) accesses
system.l2.overall_accesses::.switch_cpus.data           15                       # number of overall (read+write) accesses
system.l2.overall_accesses::total                  28                       # number of overall (read+write) accesses
system.l2.demand_miss_rate::.cpu.inst               1                       # miss rate for demand accesses
system.l2.demand_miss_rate::.cpu.data               1                       # miss rate for demand accesses
system.l2.demand_miss_rate::.switch_cpus.inst            1                       # miss rate for demand accesses
system.l2.demand_miss_rate::.switch_cpus.data     0.866667                       # miss rate for demand accesses
system.l2.demand_miss_rate::total            0.928571                       # miss rate for demand accesses
system.l2.overall_miss_rate::.cpu.inst              1                       # miss rate for overall accesses
system.l2.overall_miss_rate::.cpu.data              1                       # miss rate for overall accesses
system.l2.overall_miss_rate::.switch_cpus.inst            1                       # miss rate for overall accesses
system.l2.overall_miss_rate::.switch_cpus.data     0.866667                       # miss rate for overall accesses
system.l2.overall_miss_rate::total           0.928571                       # miss rate for overall accesses
system.l2.demand_avg_miss_latency::.switch_cpus.inst 74833.333333                       # average overall miss latency
system.l2.demand_avg_miss_latency::.switch_cpus.data 76884.615385                       # average overall miss latency
system.l2.demand_avg_miss_latency::total 64346.153846                       # average overall miss latency
system.l2.overall_avg_miss_latency::.switch_cpus.inst 74833.333333                       # average overall miss latency
system.l2.overall_avg_miss_latency::.switch_cpus.data 76884.615385                       # average overall miss latency
system.l2.overall_avg_miss_latency::total 64346.153846                       # average overall miss latency
system.l2.blocked_cycles::no_mshrs                  0                       # number of cycles access was blocked
system.l2.blocked_cycles::no_targets                0                       # number of cycles access was blocked
system.l2.blocked::no_mshrs                         0                       # number of cycles access was blocked
system.l2.blocked::no_targets                       0                       # number of cycles access was blocked
system.l2.avg_blocked_cycles::no_mshrs            nan                       # average number of cycles each access was blocked
system.l2.avg_blocked_cycles::no_targets          nan                       # average number of cycles each access was blocked
system.l2.demand_mshr_misses::.switch_cpus.inst            9                       # number of demand (read+write) MSHR misses
system.l2.demand_mshr_misses::.switch_cpus.data           13                       # number of demand (read+write) MSHR misses
system.l2.demand_mshr_misses::total                22                       # number of demand (read+write) MSHR misses
system.l2.overall_mshr_misses::.switch_cpus.inst            9                       # number of overall MSHR misses
system.l2.overall_mshr_misses::.switch_cpus.data           13                       # number of overall MSHR misses
system.l2.overall_mshr_misses::total               22                       # number of overall MSHR misses
system.l2.demand_mshr_miss_latency::.switch_cpus.inst       583500                       # number of demand (read+write) MSHR miss cycles
system.l2.demand_mshr_miss_latency::.switch_cpus.data       869500                       # number of demand (read+write) MSHR miss cycles
system.l2.demand_mshr_miss_latency::total      1453000                       # number of demand (read+write) MSHR miss cycles
system.l2.overall_mshr_miss_latency::.switch_cpus.inst       583500                       # number of overall MSHR miss cycles
system.l2.overall_mshr_miss_latency::.switch_cpus.data       869500                       # number of overall MSHR miss cycles
system.l2.overall_mshr_miss_latency::total      1453000                       # number of overall MSHR miss cycles
system.l2.demand_mshr_miss_rate::.switch_cpus.inst            1                       # mshr miss rate for demand accesses
system.l2.demand_mshr_miss_rate::.switch_cpus.data     0.866667                       # mshr miss rate for demand accesses
system.l2.demand_mshr_miss_rate::total       0.785714                       # mshr miss rate for demand accesses
system.l2.overall_mshr_miss_rate::.switch_cpus.inst            1                       # mshr miss rate for overall accesses
system.l2.overall_mshr_miss_rate::.switch_cpus.data     0.866667                       # mshr miss rate for overall accesses
system.l2.overall_mshr_miss_rate::total      0.785714                       # mshr miss rate for overall accesses
system.l2.demand_avg_mshr_miss_latency::.switch_cpus.inst 64833.333333                       # average overall mshr miss latency
system.l2.demand_avg_mshr_miss_latency::.switch_cpus.data 66884.615385                       # average overall mshr miss latency
system.l2.demand_avg_mshr_miss_latency::total 66045.454545                       # average overall mshr miss latency
system.l2.overall_avg_mshr_miss_latency::.switch_cpus.inst 64833.333333                       # average overall mshr miss latency
system.l2.overall_avg_mshr_miss_latency::.switch_cpus.data 66884.615385                       # average overall mshr miss latency
system.l2.overall_avg_mshr_miss_latency::total 66045.454545                       # average overall mshr miss latency
system.l2.replacements                              0                       # number of replacements
system.l2.ReadCleanReq_misses::.cpu.inst            3                       # number of ReadCleanReq misses
system.l2.ReadCleanReq_misses::.switch_cpus.inst            9                       # number of ReadCleanReq misses
system.l2.ReadCleanReq_misses::total               12                       # number of ReadCleanReq misses
system.l2.ReadCleanReq_miss_latency::.switch_cpus.inst       673500                       # number of ReadCleanReq miss cycles
system.l2.ReadCleanReq_miss_latency::total       673500                       # number of ReadCleanReq miss cycles
system.l2.ReadCleanReq_accesses::.cpu.inst            3                       # number of ReadCleanReq accesses(hits+misses)
system.l2.ReadCleanReq_accesses::.switch_cpus.inst            9                       # number of ReadCleanReq accesses(hits+misses)
system.l2.ReadCleanReq_accesses::total             12                       # number of ReadCleanReq accesses(hits+misses)
system.l2.ReadCleanReq_miss_rate::.cpu.inst            1                       # miss rate for ReadCleanReq accesses
system.l2.ReadCleanReq_miss_rate::.switch_cpus.inst            1                       # miss rate for ReadCleanReq accesses
system.l2.ReadCleanReq_miss_rate::total             1                       # miss rate for ReadCleanReq accesses
system.l2.ReadCleanReq_avg_miss_latency::.switch_cpus.inst 74833.333333                       # average ReadCleanReq miss latency
system.l2.ReadCleanReq_avg_miss_latency::total        56125                       # average ReadCleanReq miss latency
system.l2.ReadCleanReq_mshr_misses::.switch_cpus.inst            9                       # number of ReadCleanReq MSHR misses
system.l2.ReadCleanReq_mshr_misses::total            9                       # number of ReadCleanReq MSHR misses
system.l2.ReadCleanReq_mshr_miss_latency::.switch_cpus.inst       583500                       # number of ReadCleanReq MSHR miss cycles
system.l2.ReadCleanReq_mshr_miss_latency::total       583500                       # number of ReadCleanReq MSHR miss cycles
system.l2.ReadCleanReq_mshr_miss_rate::.switch_cpus.inst            1                       # mshr miss rate for ReadCleanReq accesses
system.l2.ReadCleanReq_mshr_miss_rate::total     0.750000                       # mshr miss rate for ReadCleanReq accesses
system.l2.ReadCleanReq_avg_mshr_miss_latency::.switch_cpus.inst 64833.333333                       # average ReadCleanReq mshr miss latency
system.l2.ReadCleanReq_avg_mshr_miss_latency::total 64833.333333                       # average ReadCleanReq mshr miss latency
system.l2.ReadSharedReq_hits::.switch_cpus.data            2                       # number of ReadSharedReq hits
system.l2.ReadSharedReq_hits::total                 2                       # number of ReadSharedReq hits
system.l2.ReadSharedReq_misses::.cpu.data            1                       # number of ReadSharedReq misses
system.l2.ReadSharedReq_misses::.switch_cpus.data           13                       # number of ReadSharedReq misses
system.l2.ReadSharedReq_misses::total              14                       # number of ReadSharedReq misses
system.l2.ReadSharedReq_miss_latency::.switch_cpus.data       999500                       # number of ReadSharedReq miss cycles
system.l2.ReadSharedReq_miss_latency::total       999500                       # number of ReadSharedReq miss cycles
system.l2.ReadSharedReq_accesses::.cpu.data            1                       # number of ReadSharedReq accesses(hits+misses)
system.l2.ReadSharedReq_accesses::.switch_cpus.data           15                       # number of ReadSharedReq accesses(hits+misses)
system.l2.ReadSharedReq_accesses::total            16                       # number of ReadSharedReq accesses(hits+misses)
system.l2.ReadSharedReq_miss_rate::.cpu.data            1                       # miss rate for ReadSharedReq accesses
system.l2.ReadSharedReq_miss_rate::.switch_cpus.data     0.866667                       # miss rate for ReadSharedReq accesses
system.l2.ReadSharedReq_miss_rate::total     0.875000                       # miss rate for ReadSharedReq accesses
system.l2.ReadSharedReq_avg_miss_latency::.switch_cpus.data 76884.615385                       # average ReadSharedReq miss latency
system.l2.ReadSharedReq_avg_miss_latency::total 71392.857143                       # average ReadSharedReq miss latency
system.l2.ReadSharedReq_mshr_misses::.switch_cpus.data           13                       # number of ReadSharedReq MSHR misses
system.l2.ReadSharedReq_mshr_misses::total           13                       # number of ReadSharedReq MSHR misses
system.l2.ReadSharedReq_mshr_miss_latency::.switch_cpus.data       869500                       # number of ReadSharedReq MSHR miss cycles
system.l2.ReadSharedReq_mshr_miss_latency::total       869500                       # number of ReadSharedReq MSHR miss cycles
system.l2.ReadSharedReq_mshr_miss_rate::.switch_cpus.data     0.866667                       # mshr miss rate for ReadSharedReq accesses
system.l2.ReadSharedReq_mshr_miss_rate::total     0.812500                       # mshr miss rate for ReadSharedReq accesses
system.l2.ReadSharedReq_avg_mshr_miss_latency::.switch_cpus.data 66884.615385                       # average ReadSharedReq mshr miss latency
system.l2.ReadSharedReq_avg_mshr_miss_latency::total 66884.615385                       # average ReadSharedReq mshr miss latency
system.l2.tags.pwrStateResidencyTicks::UNDEFINED 713234005000                       # Cumulative time (in ticks) in various power states
system.l2.tags.tagsinuse                    23.714254                       # Cycle average of tags in use
system.l2.tags.total_refs                           0                       # Total number of references to valid blocks.
system.l2.tags.sampled_refs                         0                       # Sample count of references to valid blocks.
system.l2.tags.avg_refs                           nan                       # Average number of references to valid blocks.
system.l2.tags.warmup_cycle              712930677000                       # Cycle when the warmup percentage was hit.
system.l2.tags.occ_blocks::.cpu.inst         2.999960                       # Average occupied blocks per requestor
system.l2.tags.occ_blocks::.cpu.data         0.999997                       # Average occupied blocks per requestor
system.l2.tags.occ_blocks::.switch_cpus.inst     7.973514                       # Average occupied blocks per requestor
system.l2.tags.occ_blocks::.switch_cpus.data    11.740783                       # Average occupied blocks per requestor
system.l2.tags.occ_percent::.cpu.inst        0.000092                       # Average percentage of cache occupancy
system.l2.tags.occ_percent::.cpu.data        0.000031                       # Average percentage of cache occupancy
system.l2.tags.occ_percent::.switch_cpus.inst     0.000243                       # Average percentage of cache occupancy
system.l2.tags.occ_percent::.switch_cpus.data     0.000358                       # Average percentage of cache occupancy
system.l2.tags.occ_percent::total            0.000724                       # Average percentage of cache occupancy
system.l2.tags.occ_task_id_blocks::1024            26                       # Occupied blocks per task id
system.l2.tags.age_task_id_blocks_1024::2           26                       # Occupied blocks per task id
system.l2.tags.occ_task_id_percent::1024     0.000793                       # Percentage of cache occupancy per task id
system.l2.tags.tag_accesses                       250                       # Number of tag accesses
[...]
system.cpu.icache.tags.sampled_refs                12                       # Sample count of references to valid blocks.
system.cpu.icache.tags.avg_refs          77864.166667                       # Average number of references to valid blocks.
system.cpu.icache.tags.warmup_cycle      712930677000                       # Cycle when the warmup percentage was hit.
system.cpu.icache.tags.occ_blocks::.cpu.inst     0.013827                       # Average occupied blocks per requestor
system.cpu.icache.tags.occ_blocks::.switch_cpus.inst     0.041045                       # Average occupied blocks per requestor
system.cpu.icache.tags.occ_percent::.cpu.inst     0.000027                       # Average percentage of cache occupancy
system.cpu.icache.tags.occ_percent::.switch_cpus.inst     0.000080                       # Average percentage of cache occupancy
system.cpu.icache.tags.occ_percent::total     0.000107                       # Average percentage of cache occupancy
system.cpu.icache.tags.occ_task_id_blocks::1024           12                       # Occupied blocks per task id
system.cpu.icache.tags.age_task_id_blocks_1024::3           12                       # Occupied blocks per task id
system.cpu.icache.tags.occ_task_id_percent::1024     0.023438                       # Percentage of cache occupancy per task id
system.cpu.icache.tags.tag_accesses           1868770                       # Number of tag accesses
system.cpu.icache.tags.data_accesses          1868770                       # Number of data accesses
system.cpu.dtb.walker.pwrStateResidencyTicks::UNDEFINED 716231730000                       # Cumulative time (in ticks) in various power states
system.cpu.interrupts.clk_domain.clock           8000                       # Clock period in ticks
system.cpu.itb_walker_cache.pwrStateResidencyTicks::UNDEFINED 716231730000                       # Cumulative time (in ticks) in various power states
system.cpu.itb_walker_cache.blocked_cycles::no_mshrs            0                       # number of cycles access was blocked
system.cpu.itb_walker_cache.blocked_cycles::no_targets            0                       # number of cycles access was blocked
system.cpu.itb_walker_cache.blocked::no_mshrs            0                       # number of cycles access was blocked
system.cpu.itb_walker_cache.blocked::no_targets            0                       # number of cycles access was blocked
system.cpu.itb_walker_cache.avg_blocked_cycles::no_mshrs          nan                       # average number of cycles each access was blocked
system.cpu.itb_walker_cache.avg_blocked_cycles::no_targets          nan                       # average number of cycles each access was blocked
system.cpu.itb_walker_cache.replacements            0                       # number of replacements
system.cpu.itb_walker_cache.tags.pwrStateResidencyTicks::UNDEFINED 716231730000                       # Cumulative time (in ticks) in various power states
system.cpu.itb_walker_cache.tags.tagsinuse            0                       # Cycle average of tags in use
system.cpu.itb_walker_cache.tags.total_refs            0                       # Total number of references to valid blocks.
system.cpu.itb_walker_cache.tags.sampled_refs            0                       # Sample count of references to valid blocks.
system.cpu.itb_walker_cache.tags.avg_refs          nan                       # Average number of references to valid blocks.
system.cpu.itb_walker_cache.tags.warmup_cycle            0                       # Cycle when the warmup percentage was hit.
system.cpu.itb_walker_cache.tags.tag_accesses            0                       # Number of tag accesses
system.cpu.itb_walker_cache.tags.data_accesses            0                       # Number of data accesses
system.cpu.itb.walker.pwrStateResidencyTicks::UNDEFINED 716231730000                       # Cumulative time (in ticks) in various power states
system.cpu.dtb_walker_cache.pwrStateResidencyTicks::UNDEFINED 716231730000                       # Cumulative time (in ticks) in various power states
system.cpu.dtb_walker_cache.blocked_cycles::no_mshrs            0                       # number of cycles access was blocked
system.cpu.dtb_walker_cache.blocked_cycles::no_targets            0                       # number of cycles access was blocked
system.cpu.dtb_walker_cache.blocked::no_mshrs            0                       # number of cycles access was blocked
system.cpu.dtb_walker_cache.blocked::no_targets            0                       # number of cycles access was blocked
system.cpu.dtb_walker_cache.avg_blocked_cycles::no_mshrs          nan                       # average number of cycles each access was blocked
system.cpu.dtb_walker_cache.avg_blocked_cycles::no_targets          nan                       # average number of cycles each access was blocked
system.cpu.dtb_walker_cache.replacements            0                       # number of replacements
system.cpu.dtb_walker_cache.tags.pwrStateResidencyTicks::UNDEFINED 716231730000                       # Cumulative time (in ticks) in various power states
system.cpu.dtb_walker_cache.tags.tagsinuse            0                       # Cycle average of tags in use
system.cpu.dtb_walker_cache.tags.total_refs            0                       # Total number of references to valid blocks.
system.cpu.dtb_walker_cache.tags.sampled_refs            0                       # Sample count of references to valid blocks.
system.cpu.dtb_walker_cache.tags.avg_refs          nan                       # Average number of references to valid blocks.
system.cpu.dtb_walker_cache.tags.warmup_cycle            0                       # Cycle when the warmup percentage was hit.
system.cpu.dtb_walker_cache.tags.tag_accesses            0                       # Number of tag accesses
system.cpu.dtb_walker_cache.tags.data_accesses            0                       # Number of data accesses
system.cpu.dcache.pwrStateResidencyTicks::UNDEFINED 716231730000                       # Cumulative time (in ticks) in various power states
system.cpu.dcache.demand_hits::.cpu.data            3                       # number of demand (read+write) hits
system.cpu.dcache.demand_hits::.switch_cpus.data      4344601                       # number of demand (read+write) hits
system.cpu.dcache.demand_hits::total          4344604                       # number of demand (read+write) hits
system.cpu.dcache.overall_hits::.cpu.data            3                       # number of overall hits
system.cpu.dcache.overall_hits::.switch_cpus.data      4344601                       # number of overall hits
system.cpu.dcache.overall_hits::total         4344604                       # number of overall hits
system.cpu.dcache.demand_misses::.cpu.data            1                       # number of demand (read+write) misses
system.cpu.dcache.demand_misses::.switch_cpus.data           46                       # number of demand (read+write) misses
system.cpu.dcache.demand_misses::total             47                       # number of demand (read+write) misses
system.cpu.dcache.overall_misses::.cpu.data            1                       # number of overall misses
system.cpu.dcache.overall_misses::.switch_cpus.data           46                       # number of overall misses
system.cpu.dcache.overall_misses::total            47                       # number of overall misses
system.cpu.dcache.demand_miss_latency::.switch_cpus.data      2734500                       # number of demand (read+write) miss cycles
system.cpu.dcache.demand_miss_latency::total      2734500                       # number of demand (read+write) miss cycles
system.cpu.dcache.overall_miss_latency::.switch_cpus.data      2734500                       # number of overall miss cycles
system.cpu.dcache.overall_miss_latency::total      2734500                       # number of overall miss cycles
system.cpu.dcache.demand_accesses::.cpu.data            4                       # number of demand (read+write) accesses
system.cpu.dcache.demand_accesses::.switch_cpus.data      4344647                       # number of demand (read+write) accesses
system.cpu.dcache.demand_accesses::total      4344651                       # number of demand (read+write) accesses
system.cpu.dcache.overall_accesses::.cpu.data            4                       # number of overall (read+write) accesses
system.cpu.dcache.overall_accesses::.switch_cpus.data      4344647                       # number of overall (read+write) accesses
system.cpu.dcache.overall_accesses::total      4344651                       # number of overall (read+write) accesses
system.cpu.dcache.demand_miss_rate::.cpu.data     0.250000                       # miss rate for demand accesses
system.cpu.dcache.demand_miss_rate::.switch_cpus.data     0.000011                       # miss rate for demand accesses
system.cpu.dcache.demand_miss_rate::total     0.000011                       # miss rate for demand accesses
system.cpu.dcache.overall_miss_rate::.cpu.data     0.250000                       # miss rate for overall accesses
system.cpu.dcache.overall_miss_rate::.switch_cpus.data     0.000011                       # miss rate for overall accesses
system.cpu.dcache.overall_miss_rate::total     0.000011                       # miss rate for overall accesses
system.cpu.dcache.demand_avg_miss_latency::.switch_cpus.data 59445.652174                       # average overall miss latency
system.cpu.dcache.demand_avg_miss_latency::total 58180.851064                       # average overall miss latency
system.cpu.dcache.overall_avg_miss_latency::.switch_cpus.data 59445.652174                       # average overall miss latency
system.cpu.dcache.overall_avg_miss_latency::total 58180.851064                       # average overall miss latency
system.cpu.dcache.blocked_cycles::no_mshrs            0                       # number of cycles access was blocked
system.cpu.dcache.blocked_cycles::no_targets            0                       # number of cycles access was blocked
system.cpu.dcache.blocked::no_mshrs                 0                       # number of cycles access was blocked
system.cpu.dcache.blocked::no_targets               0                       # number of cycles access was blocked
system.cpu.dcache.avg_blocked_cycles::no_mshrs          nan                       # average number of cycles each access was blocked
system.cpu.dcache.avg_blocked_cycles::no_targets          nan                       # average number of cycles each access was blocked
system.cpu.dcache.demand_mshr_hits::.switch_cpus.data           31                       # number of demand (read+write) MSHR hits
system.cpu.dcache.demand_mshr_hits::total           31                       # number of demand (read+write) MSHR hits
system.cpu.dcache.overall_mshr_hits::.switch_cpus.data           31                       # number of overall MSHR hits
system.cpu.dcache.overall_mshr_hits::total           31                       # number of overall MSHR hits
system.cpu.dcache.demand_mshr_misses::.switch_cpus.data           15                       # number of demand (read+write) MSHR misses
system.cpu.dcache.demand_mshr_misses::total           15                       # number of demand (read+write) MSHR misses
system.cpu.dcache.overall_mshr_misses::.switch_cpus.data           15                       # number of overall MSHR misses
system.cpu.dcache.overall_mshr_misses::total           15                       # number of overall MSHR misses
system.cpu.dcache.demand_mshr_miss_latency::.switch_cpus.data      1045000                       # number of demand (read+write) MSHR miss cycles
system.cpu.dcache.demand_mshr_miss_latency::total      1045000                       # number of demand (read+write) MSHR miss cycles
system.cpu.dcache.overall_mshr_miss_latency::.switch_cpus.data      1045000                       # number of overall MSHR miss cycles
system.cpu.dcache.overall_mshr_miss_latency::total      1045000                       # number of overall MSHR miss cycles
system.cpu.dcache.demand_mshr_miss_rate::.switch_cpus.data     0.000003                       # mshr miss rate for demand accesses
system.cpu.dcache.demand_mshr_miss_rate::total     0.000003                       # mshr miss rate for demand accesses
system.cpu.dcache.overall_mshr_miss_rate::.switch_cpus.data     0.000003                       # mshr miss rate for overall accesses
system.cpu.dcache.overall_mshr_miss_rate::total     0.000003                       # mshr miss rate for overall accesses
system.cpu.dcache.demand_avg_mshr_miss_latency::.switch_cpus.data 69666.666667                       # average overall mshr miss latency
system.cpu.dcache.demand_avg_mshr_miss_latency::total 69666.666667                       # average overall mshr miss latency
system.cpu.dcache.overall_avg_mshr_miss_latency::.switch_cpus.data 69666.666667                       # average overall mshr miss latency
system.cpu.dcache.overall_avg_mshr_miss_latency::total 69666.666667                       # average overall mshr miss latency
system.cpu.dcache.replacements                      0                       # number of replacements
system.cpu.dcache.ReadReq_hits::.cpu.data            3                       # number of ReadReq hits
system.cpu.dcache.ReadReq_hits::.switch_cpus.data      3259892                       # number of ReadReq hits
system.cpu.dcache.ReadReq_hits::total         3259895                       # number of ReadReq hits
system.cpu.dcache.ReadReq_misses::.cpu.data            1                       # number of ReadReq misses
system.cpu.dcache.ReadReq_misses::.switch_cpus.data           45                       # number of ReadReq misses
system.cpu.dcache.ReadReq_misses::total            46                       # number of ReadReq misses
system.cpu.dcache.ReadReq_miss_latency::.switch_cpus.data      2649500                       # number of ReadReq miss cycles
system.cpu.dcache.ReadReq_miss_latency::total      2649500                       # number of ReadReq miss cycles
system.cpu.dcache.ReadReq_accesses::.cpu.data            4                       # number of ReadReq accesses(hits+misses)
system.cpu.dcache.ReadReq_accesses::.switch_cpus.data      3259937                       # number of ReadReq accesses(hits+misses)
system.cpu.dcache.ReadReq_accesses::total      3259941                       # number of ReadReq accesses(hits+misses)
system.cpu.dcache.ReadReq_miss_rate::.cpu.data     0.250000                       # miss rate for ReadReq accesses
system.cpu.dcache.ReadReq_miss_rate::.switch_cpus.data     0.000014                       # miss rate for ReadReq accesses
system.cpu.dcache.ReadReq_miss_rate::total     0.000014                       # miss rate for ReadReq accesses
system.cpu.dcache.ReadReq_avg_miss_latency::.switch_cpus.data 58877.777778                       # average ReadReq miss latency
system.cpu.dcache.ReadReq_avg_miss_latency::total 57597.826087                       # average ReadReq miss latency
system.cpu.dcache.ReadReq_mshr_hits::.switch_cpus.data           30                       # number of ReadReq MSHR hits
system.cpu.dcache.ReadReq_mshr_hits::total           30                       # number of ReadReq MSHR hits
system.cpu.dcache.ReadReq_mshr_misses::.switch_cpus.data           15                       # number of ReadReq MSHR misses
system.cpu.dcache.ReadReq_mshr_misses::total           15                       # number of ReadReq MSHR misses
system.cpu.dcache.ReadReq_mshr_miss_latency::.switch_cpus.data      1045000                       # number of ReadReq MSHR miss cycles
system.cpu.dcache.ReadReq_mshr_miss_latency::total      1045000                       # number of ReadReq MSHR miss cycles
system.cpu.dcache.ReadReq_mshr_miss_rate::.switch_cpus.data     0.000005                       # mshr miss rate for ReadReq accesses
system.cpu.dcache.ReadReq_mshr_miss_rate::total     0.000005                       # mshr miss rate for ReadReq accesses
system.cpu.dcache.ReadReq_avg_mshr_miss_latency::.switch_cpus.data 69666.666667                       # average ReadReq mshr miss latency
system.cpu.dcache.ReadReq_avg_mshr_miss_latency::total 69666.666667                       # average ReadReq mshr miss latency
system.cpu.dcache.WriteReq_hits::.switch_cpus.data      1084709                       # number of WriteReq hits
system.cpu.dcache.WriteReq_hits::total        1084709                       # number of WriteReq hits
system.cpu.dcache.WriteReq_misses::.switch_cpus.data            1                       # number of WriteReq misses
system.cpu.dcache.WriteReq_misses::total            1                       # number of WriteReq misses
system.cpu.dcache.WriteReq_miss_latency::.switch_cpus.data        85000                       # number of WriteReq miss cycles
system.cpu.dcache.WriteReq_miss_latency::total        85000                       # number of WriteReq miss cycles
system.cpu.dcache.WriteReq_accesses::.switch_cpus.data      1084710                       # number of WriteReq accesses(hits+misses)
system.cpu.dcache.WriteReq_accesses::total      1084710                       # number of WriteReq accesses(hits+misses)
system.cpu.dcache.WriteReq_miss_rate::.switch_cpus.data     0.000001                       # miss rate for WriteReq accesses
system.cpu.dcache.WriteReq_miss_rate::total     0.000001                       # miss rate for WriteReq accesses
system.cpu.dcache.WriteReq_avg_miss_latency::.switch_cpus.data        85000                       # average WriteReq miss latency
system.cpu.dcache.WriteReq_avg_miss_latency::total        85000                       # average WriteReq miss latency
system.cpu.dcache.WriteReq_mshr_hits::.switch_cpus.data            1                       # number of WriteReq MSHR hits
system.cpu.dcache.WriteReq_mshr_hits::total            1                       # number of WriteReq MSHR hits
system.cpu.dcache.tags.pwrStateResidencyTicks::UNDEFINED 716231730000                       # Cumulative time (in ticks) in various power states
system.cpu.dcache.tags.tagsinuse             0.073197                       # Cycle average of tags in use
system.cpu.dcache.tags.total_refs             4344620                       # Total number of references to valid blocks.
system.cpu.dcache.tags.sampled_refs                16                       # Sample count of references to valid blocks.
system.cpu.dcache.tags.avg_refs          271538.750000                       # Average number of references to valid blocks.
system.cpu.dcache.tags.warmup_cycle      712930677500                       # Cycle when the warmup percentage was hit.
system.cpu.dcache.tags.occ_blocks::.cpu.data     0.004609                       # Average occupied blocks per requestor
system.cpu.dcache.tags.occ_blocks::.switch_cpus.data     0.068588                       # Average occupied blocks per requestor
system.cpu.dcache.tags.occ_percent::.cpu.data     0.000005                       # Average percentage of cache occupancy
system.cpu.dcache.tags.occ_percent::.switch_cpus.data     0.000067                       # Average percentage of cache occupancy
system.cpu.dcache.tags.occ_percent::total     0.000071                       # Average percentage of cache occupancy
system.cpu.dcache.tags.occ_task_id_blocks::1024           16                       # Occupied blocks per task id
system.cpu.dcache.tags.age_task_id_blocks_1024::3           16                       # Occupied blocks per task id
system.cpu.dcache.tags.occ_task_id_percent::1024     0.015625                       # Percentage of cache occupancy per task id
system.cpu.dcache.tags.tag_accesses           8689318                       # Number of tag accesses
system.cpu.dcache.tags.data_accesses          8689318                       # Number of data accesses

---------- End Simulation Statistics   ----------
