
---------- Begin Simulation Statistics ----------
final_tick                               412246468500                       # Number of ticks from beginning of simulation (restored from checkpoints and never reset)
host_inst_rate                                 206908                       # Simulator instruction rate (inst/s)
host_mem_usage                                 689064                       # Number of bytes of host memory used
host_op_rate                                   278549                       # Simulator op (including micro ops) rate (op/s)
host_seconds                                     4.83                       # Real time elapsed on the host
host_tick_rate                               62860740                       # Simulator tick rate (ticks/s)
sim_freq                                 1000000000000                       # Frequency of simulated ticks
sim_insts                                     1000016                       # Number of instructions simulated
sim_ops                                       1346291                       # Number of ops (including micro ops) simulated
sim_seconds                                  0.000304                       # Number of seconds simulated
sim_ticks                                   303821500                       # Number of ticks simulated
system.cpu.committedInsts                          15                       # Number of instructions committed
system.cpu.committedOps                            16                       # Number of ops (including micro ops) committed
system.cpu.dtb.rdAccesses                           6                       # TLB accesses on read requests
system.cpu.dtb.rdMisses                             0                       # TLB misses on read requests
system.cpu.dtb.wrAccesses                           1                       # TLB accesses on write requests
system.cpu.dtb.wrMisses                             0                       # TLB misses on write requests
system.cpu.idle_fraction                            0                       # Percentage of idle cycles
system.cpu.itb.rdAccesses                           0                       # TLB accesses on read requests
system.cpu.itb.rdMisses                             0                       # TLB misses on read requests
system.cpu.itb.wrAccesses                          19                       # TLB accesses on write requests
system.cpu.itb.wrMisses                             0                       # TLB misses on write requests
system.cpu.not_idle_fraction                        1                       # Percentage of non-idle cycles
system.cpu.numCycles                               20                       # number of cpu cycles simulated
system.cpu.numWorkItemsCompleted                    0                       # number of work items this cpu completed
system.cpu.numWorkItemsStarted                      0                       # number of work items this cpu started
system.cpu.num_busy_cycles                         20                       # Number of busy cycles
system.cpu.num_cc_register_writes                   6                       # number of times the CC registers were written
system.cpu.num_conditional_control_insts            0                       # number of instructions that are conditional controls
system.cpu.num_fp_alu_accesses                      0                       # Number of float alu accesses
system.cpu.num_fp_insts                             0                       # number of float instructions
system.cpu.num_fp_register_reads                    0                       # number of times the floating registers were read
system.cpu.num_fp_register_writes                   0                       # number of times the floating registers were written
system.cpu.num_func_calls                           0                       # number of times a function call or return occured
system.cpu.num_idle_cycles                          0                       # Number of idle cycles
system.cpu.num_int_alu_accesses                    16                       # Number of integer alu accesses
system.cpu.num_int_insts                           16                       # number of integer instructions
system.cpu.num_int_register_reads                  37                       # number of times the integer registers were read
system.cpu.num_int_register_writes                 15                       # number of times the integer registers were written
system.cpu.num_load_insts                           6                       # Number of load instructions
system.cpu.num_mem_refs                             7                       # number of memory refs
system.cpu.num_store_insts                          1                       # Number of store instructions
system.cpu.num_vec_alu_accesses                     0                       # Number of vector alu accesses
system.cpu.num_vec_insts                            0                       # number of vector instructions
system.cpu.num_vec_register_reads                   0                       # number of times the vector registers were read
system.cpu.num_vec_register_writes                  0                       # number of times the vector registers were written
system.cpu.op_class::No_OpClass                     0      0.00%      0.00% # Class of executed instruction
system.cpu.op_class::IntAlu                         9     56.25%     56.25% # Class of executed instruction
system.cpu.op_class::IntMult                        0      0.00%     56.25% # Class of executed instruction
system.cpu.op_class::IntDiv                         0      0.00%     56.25% # Class of executed instruction
system.cpu.op_class::FloatAdd                       0      0.00%     56.25% # Class of executed instruction
system.cpu.op_class::FloatCmp                       0      0.00%     56.25% # Class of executed instruction
system.cpu.op_class::FloatCvt                       0      0.00%     56.25% # Class of executed instruction
system.cpu.op_class::FloatMult                      0      0.00%     56.25% # Class of executed instruction
system.cpu.op_class::FloatMultAcc                   0      0.00%     56.25% # Class of executed instruction
system.cpu.op_class::FloatDiv                       0      0.00%     56.25% # Class of executed instruction
system.cpu.op_class::FloatMisc                      0      0.00%     56.25% # Class of executed instruction
system.cpu.op_class::FloatSqrt                      0      0.00%     56.25% # Class of executed instruction
system.cpu.op_class::SimdAdd                        0      0.00%     56.25% # Class of executed instruction
system.cpu.op_class::SimdAddAcc                     0      0.00%     56.25% # Class of executed instruction
system.cpu.op_class::SimdAlu                        0      0.00%     56.25% # Class of executed instruction
system.cpu.op_class::SimdCmp                        0      0.00%     56.25% # Class of executed instruction
system.cpu.op_class::SimdCvt                        0      0.00%     56.25% # Class of executed instruction
system.cpu.op_class::SimdMisc                       0      0.00%     56.25% # Class of executed instruction
system.cpu.op_class::SimdMult                       0      0.00%     56.25% # Class of executed instruction
system.cpu.op_class::SimdMultAcc                    0      0.00%     56.25% # Class of executed instruction
system.cpu.op_class::SimdShift                      0      0.00%     56.25% # Class of executed instruction
system.cpu.op_class::SimdShiftAcc                   0      0.00%     56.25% # Class of executed instruction
system.cpu.op_class::SimdDiv                        0      0.00%     56.25% # Class of executed instruction
system.cpu.op_class::SimdSqrt                       0      0.00%     56.25% # Class of executed instruction
system.cpu.op_class::SimdFloatAdd                   0      0.00%     56.25% # Class of executed instruction
system.cpu.op_class::SimdFloatAlu                   0      0.00%     56.25% # Class of executed instruction
system.cpu.op_class::SimdFloatCmp                   0      0.00%     56.25% # Class of executed instruction
system.cpu.op_class::SimdFloatCvt                   0      0.00%     56.25% # Class of executed instruction
system.cpu.op_class::SimdFloatDiv                   0      0.00%     56.25% # Class of executed instruction
system.cpu.op_class::SimdFloatMisc                  0      0.00%     56.25% # Class of executed instruction
system.cpu.op_class::SimdFloatMult                  0      0.00%     56.25% # Class of executed instruction
system.cpu.op_class::SimdFloatMultAcc               0      0.00%     56.25% # Class of executed instruction
system.cpu.op_class::SimdFloatSqrt                  0      0.00%     56.25% # Class of executed instruction
system.cpu.op_class::SimdReduceAdd                  0      0.00%     56.25% # Class of executed instruction
system.cpu.op_class::SimdReduceAlu                  0      0.00%     56.25% # Class of executed instruction
system.cpu.op_class::SimdReduceCmp                  0      0.00%     56.25% # Class of executed instruction
system.cpu.op_class::SimdFloatReduceAdd             0      0.00%     56.25% # Class of executed instruction
system.cpu.op_class::SimdFloatReduceCmp             0      0.00%     56.25% # Class of executed instruction
system.cpu.op_class::SimdAes                        0      0.00%     56.25% # Class of executed instruction
system.cpu.op_class::SimdAesMix                     0      0.00%     56.25% # Class of executed instruction
system.cpu.op_class::SimdSha1Hash                   0      0.00%     56.25% # Class of executed instruction
system.cpu.op_class::SimdSha1Hash2                  0      0.00%     56.25% # Class of executed instruction
system.cpu.op_class::SimdSha256Hash                 0      0.00%     56.25% # Class of executed instruction
system.cpu.op_class::SimdSha256Hash2                0      0.00%     56.25% # Class of executed instruction
system.cpu.op_class::SimdShaSigma2                  0      0.00%     56.25% # Class of executed instruction
system.cpu.op_class::SimdShaSigma3                  0      0.00%     56.25% # Class of executed instruction
system.cpu.op_class::SimdPredAlu                    0      0.00%     56.25% # Class of executed instruction
system.cpu.op_class::MemRead                        6     37.50%     93.75% # Class of executed instruction
system.cpu.op_class::MemWrite                       1      6.25%    100.00% # Class of executed instruction
system.cpu.op_class::FloatMemRead                   0      0.00%    100.00% # Class of executed instruction
system.cpu.op_class::FloatMemWrite                  0      0.00%    100.00% # Class of executed instruction
system.cpu.op_class::IprAccess                      0      0.00%    100.00% # Class of executed instruction
system.cpu.op_class::InstPrefetch                   0      0.00%    100.00% # Class of executed instruction
system.cpu.op_class::total                         16                       # Class of executed instruction
system.cpu.workload.numSyscalls                     0                       # Number of system calls
system.membus.snoop_filter.hit_multi_requests            0                       # Number of requests hitting in the snoop filter with multiple (>1) holders of the requested data.
system.membus.snoop_filter.hit_multi_snoops            0                       # Number of snoops hitting in the snoop filter with multiple (>1) holders of the requested data.
system.membus.snoop_filter.hit_single_requests            0                       # Number of requests hitting in the snoop filter with a single holder of the requested data.
system.membus.snoop_filter.hit_single_snoops            0                       # Number of snoops hitting in the snoop filter with a single holder of the requested data.
system.membus.snoop_filter.tot_requests            26                       # Total number of requests made to the snoop filter.
system.membus.snoop_filter.tot_snoops               0                       # Total number of snoops made to the snoop filter.
system.switch_cpus.branchPred.BTBCorrect            0                       # Number of correct BTB predictions (this stat may not work properly.
system.switch_cpus.branchPred.BTBHitPct      0.000000                       # BTB Hit Percentage
system.switch_cpus.branchPred.BTBHits               0                       # Number of BTB hits
system.switch_cpus.branchPred.BTBLookups        32381                       # Number of BTB lookups
system.switch_cpus.branchPred.RASInCorrect           66                       # Number of incorrect RAS predictions.
system.switch_cpus.branchPred.condIncorrect          956                       # Number of conditional branches incorrect
system.switch_cpus.branchPred.condPredicted        65480                       # Number of conditional branches predicted
system.switch_cpus.branchPred.indirectHits        22900                       # Number of indirect target hits.
system.switch_cpus.branchPred.indirectLookups        32381                       # Number of indirect predictor lookups.
system.switch_cpus.branchPred.indirectMisses         9481                       # Number of indirect misses.
system.switch_cpus.branchPred.lookups           66336                       # Number of BP lookups
system.switch_cpus.branchPred.usedRAS             594                       # Number of times the RAS was used to get a target.
system.switch_cpus.branchPredindirectMispredicted          335                       # Number of mispredicted indirect branches.
system.switch_cpus.cc_regfile_reads            305877                       # number of cc regfile reads
system.switch_cpus.cc_regfile_writes           554209                       # number of cc regfile writes
system.switch_cpus.commit.amos                      0                       # Number of atomic instructions committed
system.switch_cpus.commit.branchMispredicts          956                       # The number of times a branch was mispredicted
system.switch_cpus.commit.branches              61320                       # Number of branches committed
system.switch_cpus.commit.bw_lim_events         40499                       # number cycles where commit BW limit reached
system.switch_cpus.commit.commitSquashedInsts        55183                       # The number of squashed insts skipped by commit
system.switch_cpus.commit.committedInsts      1000001                       # Number of instructions committed
system.switch_cpus.commit.committedOps        1346275                       # Number of ops (including micro ops) committed
system.switch_cpus.commit.committed_per_cycle::samples       599146                       # Number of insts commited each cycle
system.switch_cpus.commit.committed_per_cycle::mean     2.246990                       # Number of insts commited each cycle
system.switch_cpus.commit.committed_per_cycle::stdev     2.449047                       # Number of insts commited each cycle
system.switch_cpus.commit.committed_per_cycle::underflows            0      0.00%      0.00% # Number of insts commited each cycle
system.switch_cpus.commit.committed_per_cycle::0       163932     27.36%     27.36% # Number of insts commited each cycle
system.switch_cpus.commit.committed_per_cycle::1       176976     29.54%     56.90% # Number of insts commited each cycle
system.switch_cpus.commit.committed_per_cycle::2        59999     10.01%     66.91% # Number of insts commited each cycle
system.switch_cpus.commit.committed_per_cycle::3        60352     10.07%     76.99% # Number of insts commited each cycle
system.switch_cpus.commit.committed_per_cycle::4          658      0.11%     77.10% # Number of insts commited each cycle
system.switch_cpus.commit.committed_per_cycle::5        38810      6.48%     83.57% # Number of insts commited each cycle
system.switch_cpus.commit.committed_per_cycle::6        57869      9.66%     93.23% # Number of insts commited each cycle
system.switch_cpus.commit.committed_per_cycle::7           51      0.01%     93.24% # Number of insts commited each cycle
system.switch_cpus.commit.committed_per_cycle::8        40499      6.76%    100.00% # Number of insts commited each cycle
system.switch_cpus.commit.committed_per_cycle::overflows            0      0.00%    100.00% # Number of insts commited each cycle
system.switch_cpus.commit.committed_per_cycle::min_value            0                       # Number of insts commited each cycle
system.switch_cpus.commit.committed_per_cycle::max_value            8                       # Number of insts commited each cycle
system.switch_cpus.commit.committed_per_cycle::total       599146                       # Number of insts commited each cycle
system.switch_cpus.commit.fp_insts                  0                       # Number of committed floating point instructions.
system.switch_cpus.commit.function_calls           12                       # Number of function calls committed.
system.switch_cpus.commit.int_insts           1345872                       # Number of committed integer instructions.
system.switch_cpus.commit.loads                412393                       # Number of loads committed
system.switch_cpus.commit.membars                   0                       # Number of memory barriers committed
system.switch_cpus.commit.op_class_0::No_OpClass            0      0.00%      0.00% # Class of committed instruction
system.switch_cpus.commit.op_class_0::IntAlu       834847     62.01%     62.01% # Class of committed instruction
system.switch_cpus.commit.op_class_0::IntMult          400      0.03%     62.04% # Class of committed instruction
system.switch_cpus.commit.op_class_0::IntDiv            0      0.00%     62.04% # Class of committed instruction
system.switch_cpus.commit.op_class_0::FloatAdd            0      0.00%     62.04% # Class of committed instruction
system.switch_cpus.commit.op_class_0::FloatCmp            0      0.00%     62.04% # Class of committed instruction
system.switch_cpus.commit.op_class_0::FloatCvt            0      0.00%     62.04% # Class of committed instruction
system.switch_cpus.commit.op_class_0::FloatMult            0      0.00%     62.04% # Class of committed instruction
system.switch_cpus.commit.op_class_0::FloatMultAcc            0      0.00%     62.04% # Class of committed instruction
system.switch_cpus.commit.op_class_0::FloatDiv            0      0.00%     62.04% # Class of committed instruction
system.switch_cpus.commit.op_class_0::FloatMisc            0      0.00%     62.04% # Class of committed instruction
system.switch_cpus.commit.op_class_0::FloatSqrt            0      0.00%     62.04% # Class of committed instruction
system.switch_cpus.commit.op_class_0::SimdAdd            0      0.00%     62.04% # Class of committed instruction
system.switch_cpus.commit.op_class_0::SimdAddAcc            0      0.00%     62.04% # Class of committed instruction
system.switch_cpus.commit.op_class_0::SimdAlu            0      0.00%     62.04% # Class of committed instruction
system.switch_cpus.commit.op_class_0::SimdCmp            0      0.00%     62.04% # Class of committed instruction
system.switch_cpus.commit.op_class_0::SimdCvt            0      0.00%     62.04% # Class of committed instruction
system.switch_cpus.commit.op_class_0::SimdMisc            0      0.00%     62.04% # Class of committed instruction
system.switch_cpus.commit.op_class_0::SimdMult            0      0.00%     62.04% # Class of committed instruction
system.switch_cpus.commit.op_class_0::SimdMultAcc            0      0.00%     62.04% # Class of committed instruction
system.switch_cpus.commit.op_class_0::SimdShift            0      0.00%     62.04% # Class of committed instruction
system.switch_cpus.commit.op_class_0::SimdShiftAcc            0      0.00%     62.04% # Class of committed instruction
system.switch_cpus.commit.op_class_0::SimdDiv            0      0.00%     62.04% # Class of committed instruction
system.switch_cpus.commit.op_class_0::SimdSqrt            0      0.00%     62.04% # Class of committed instruction
system.switch_cpus.commit.op_class_0::SimdFloatAdd            0      0.00%     62.04% # Class of committed instruction
system.switch_cpus.commit.op_class_0::SimdFloatAlu            0      0.00%     62.04% # Class of committed instruction
system.switch_cpus.commit.op_class_0::SimdFloatCmp            0      0.00%     62.04% # Class of committed instruction
system.switch_cpus.commit.op_class_0::SimdFloatCvt            0      0.00%     62.04% # Class of committed instruction
system.switch_cpus.commit.op_class_0::SimdFloatDiv            0      0.00%     62.04% # Class of committed instruction
system.switch_cpus.commit.op_class_0::SimdFloatMisc            0      0.00%     62.04% # Class of committed instruction
system.switch_cpus.commit.op_class_0::SimdFloatMult            0      0.00%     62.04% # Class of committed instruction
system.switch_cpus.commit.op_class_0::SimdFloatMultAcc            0      0.00%     62.04% # Class of committed instruction
system.switch_cpus.commit.op_class_0::SimdFloatSqrt            0      0.00%     62.04% # Class of committed instruction
system.switch_cpus.commit.op_class_0::SimdReduceAdd            0      0.00%     62.04% # Class of committed instruction
system.switch_cpus.commit.op_class_0::SimdReduceAlu            0      0.00%     62.04% # Class of committed instruction
system.switch_cpus.commit.op_class_0::SimdReduceCmp            0      0.00%     62.04% # Class of committed instruction
system.switch_cpus.commit.op_class_0::SimdFloatReduceAdd            0      0.00%     62.04% # Class of committed instruction
system.switch_cpus.commit.op_class_0::SimdFloatReduceCmp            0      0.00%     62.04% # Class of committed instruction
system.switch_cpus.commit.op_class_0::SimdAes            0      0.00%     62.04% # Class of committed instruction
system.switch_cpus.commit.op_class_0::SimdAesMix            0      0.00%     62.04% # Class of committed instruction
system.switch_cpus.commit.op_class_0::SimdSha1Hash            0      0.00%     62.04% # Class of committed instruction
system.switch_cpus.commit.op_class_0::SimdSha1Hash2            0      0.00%     62.04% # Class of committed instruction
system.switch_cpus.commit.op_class_0::SimdSha256Hash            0      0.00%     62.04% # Class of committed instruction
system.switch_cpus.commit.op_class_0::SimdSha256Hash2            0      0.00%     62.04% # Class of committed instruction
system.switch_cpus.commit.op_class_0::SimdShaSigma2            0      0.00%     62.04% # Class of committed instruction
system.switch_cpus.commit.op_class_0::SimdShaSigma3            0      0.00%     62.04% # Class of committed instruction
system.switch_cpus.commit.op_class_0::SimdPredAlu            0      0.00%     62.04% # Class of committed instruction
system.switch_cpus.commit.op_class_0::MemRead       412393     30.63%     92.67% # Class of committed instruction
system.switch_cpus.commit.op_class_0::MemWrite        98635      7.33%    100.00% # Class of committed instruction
system.switch_cpus.commit.op_class_0::FloatMemRead            0      0.00%    100.00% # Class of committed instruction
system.switch_cpus.commit.op_class_0::FloatMemWrite            0      0.00%    100.00% # Class of committed instruction
system.switch_cpus.commit.op_class_0::IprAccess            0      0.00%    100.00% # Class of committed instruction
system.switch_cpus.commit.op_class_0::InstPrefetch            0      0.00%    100.00% # Class of committed instruction
system.switch_cpus.commit.op_class_0::total      1346275                       # Class of committed instruction
system.switch_cpus.commit.refs                 511028                       # Number of memory references committed
system.switch_cpus.commit.swp_count                 0                       # Number of s/w prefetches committed
system.switch_cpus.commit.vec_insts                 0                       # Number of committed Vector instructions.
system.switch_cpus.committedInsts             1000001                       # Number of Instructions Simulated
system.switch_cpus.committedOps               1346275                       # Number of Ops (including micro ops) Simulated
system.switch_cpus.cpi                       0.607622                       # CPI: Cycles Per Instruction
system.switch_cpus.cpi_total                 0.607622                       # CPI: Total CPI of All Threads
system.switch_cpus.decode.BlockedCycles        381560                       # Number of cycles decode is blocked
system.switch_cpus.decode.DecodedInsts        1412292                       # Number of instructions handled by decode
system.switch_cpus.decode.IdleCycles            46296                       # Number of cycles decode is idle
system.switch_cpus.decode.RunCycles             68766                       # Number of cycles decode is running
system.switch_cpus.decode.SquashCycles           1018                       # Number of cycles decode is squashing
system.switch_cpus.decode.UnblockCycles        109548                       # Number of cycles decode is unblocking
system.switch_cpus.dtb.rdAccesses              418688                       # TLB accesses on read requests
system.switch_cpus.dtb.rdMisses                    68                       # TLB misses on read requests
system.switch_cpus.dtb.wrAccesses               99196                       # TLB accesses on write requests
system.switch_cpus.dtb.wrMisses                     0                       # TLB misses on write requests
system.switch_cpus.fetch.Branches               66336                       # Number of branches that fetch encountered
system.switch_cpus.fetch.CacheLines             86998                       # Number of cache lines fetched
system.switch_cpus.fetch.Cycles                518238                       # Number of cycles fetch has run and was not squashing or blocked
system.switch_cpus.fetch.IcacheSquashes           185                       # Number of outstanding Icache misses that were squashed
system.switch_cpus.fetch.Insts                1057930                       # Number of instructions fetch has processed
system.switch_cpus.fetch.SquashCycles            2036                       # Number of cycles fetch has spent squashing
system.switch_cpus.fetch.branchRate          0.109173                       # Number of branch fetches per cycle
system.switch_cpus.fetch.icacheStallCycles        87938                       # Number of cycles fetch is stalled on an Icache miss
system.switch_cpus.fetch.predictedBranches        23494                       # Number of branches that fetch has predicted taken
system.switch_cpus.fetch.rate                1.741096                       # Number of inst fetches per cycle
system.switch_cpus.fetch.rateDist::samples       607194                       # Number of instructions fetched each cycle (Total)
system.switch_cpus.fetch.rateDist::mean      2.365420                       # Number of instructions fetched each cycle (Total)
system.switch_cpus.fetch.rateDist::stdev     3.333913                       # Number of instructions fetched each cycle (Total)
system.switch_cpus.fetch.rateDist::underflows            0      0.00%      0.00% # Number of instructions fetched each cycle (Total)
system.switch_cpus.fetch.rateDist::0           382616     63.01%     63.01% # Number of instructions fetched each cycle (Total)
system.switch_cpus.fetch.rateDist::1             1467      0.24%     63.26% # Number of instructions fetched each cycle (Total)
system.switch_cpus.fetch.rateDist::2            22025      3.63%     66.88% # Number of instructions fetched each cycle (Total)
system.switch_cpus.fetch.rateDist::3             2575      0.42%     67.31% # Number of instructions fetched each cycle (Total)
system.switch_cpus.fetch.rateDist::4            18768      3.09%     70.40% # Number of instructions fetched each cycle (Total)
system.switch_cpus.fetch.rateDist::5            23307      3.84%     74.24% # Number of instructions fetched each cycle (Total)
system.switch_cpus.fetch.rateDist::6            19864      3.27%     77.51% # Number of instructions fetched each cycle (Total)
system.switch_cpus.fetch.rateDist::7            20340      3.35%     80.86% # Number of instructions fetched each cycle (Total)
system.switch_cpus.fetch.rateDist::8           116232     19.14%    100.00% # Number of instructions fetched each cycle (Total)
system.switch_cpus.fetch.rateDist::overflows            0      0.00%    100.00% # Number of instructions fetched each cycle (Total)
system.switch_cpus.fetch.rateDist::min_value            0                       # Number of instructions fetched each cycle (Total)
system.switch_cpus.fetch.rateDist::max_value            8                       # Number of instructions fetched each cycle (Total)
system.switch_cpus.fetch.rateDist::total       607194                       # Number of instructions fetched each cycle (Total)
system.switch_cpus.fp_regfile_writes               56                       # number of floating regfile writes
system.switch_cpus.idleCycles                     429                       # Total number of cycles that the CPU has spent unscheduled due to idling
system.switch_cpus.iew.branchMispredicts         1033                       # Number of branch mispredicts detected at execute
system.switch_cpus.iew.exec_branches            62260                       # Number of branches executed
system.switch_cpus.iew.exec_nop                     0                       # number of nop insts executed
system.switch_cpus.iew.exec_rate             2.251878                       # Inst execution rate
system.switch_cpus.iew.exec_refs               517884                       # number of memory reference insts executed
system.switch_cpus.iew.exec_stores              99196                       # Number of stores executed
system.switch_cpus.iew.exec_swp                     0                       # number of swp insts executed
system.switch_cpus.iew.iewBlockCycles            7396                       # Number of cycles IEW is blocking
system.switch_cpus.iew.iewDispLoadInsts        428534                       # Number of dispatched load instructions
system.switch_cpus.iew.iewDispNonSpecInsts            0                       # Number of dispatched non-speculative instructions
system.switch_cpus.iew.iewDispSquashedInsts           95                       # Number of squashed instructions skipped by dispatch
system.switch_cpus.iew.iewDispStoreInsts       103225                       # Number of dispatched store instructions
system.switch_cpus.iew.iewDispatchedInsts      1401544                       # Number of instructions dispatched to IQ
system.switch_cpus.iew.iewExecLoadInsts        418688                       # Number of load instructions executed
system.switch_cpus.iew.iewExecSquashedInsts         1874                       # Number of squashed instructions skipped in execute
system.switch_cpus.iew.iewExecutedInsts       1368293                       # Number of executed instructions
system.switch_cpus.iew.iewIQFullEvents            788                       # Number of times the IQ has become full, causing a stall
system.switch_cpus.iew.iewIdleCycles                0                       # Number of cycles IEW is idle
system.switch_cpus.iew.iewLSQFullEvents           120                       # Number of times the LSQ has become full, causing a stall
system.switch_cpus.iew.iewSquashCycles           1018                       # Number of cycles IEW is squashing
system.switch_cpus.iew.iewUnblockCycles           908                       # Number of cycles IEW is unblocking
system.switch_cpus.iew.lsq.thread0.blockedLoads            0                       # Number of blocked loads due to partial load-store forwarding
system.switch_cpus.iew.lsq.thread0.cacheBlocked            0                       # Number of times an access to memory failed due to the cache being blocked
system.switch_cpus.iew.lsq.thread0.forwLoads       120327                       # Number of loads that had data forwarded from stores
system.switch_cpus.iew.lsq.thread0.ignoredResponses           15                       # Number of memory responses ignored because the instruction is squashed
system.switch_cpus.iew.lsq.thread0.invAddrLoads            0                       # Number of loads ignored due to an invalid address
system.switch_cpus.iew.lsq.thread0.invAddrSwpfs            0                       # Number of software prefetches ignored due to an invalid address
system.switch_cpus.iew.lsq.thread0.memOrderViolation           65                       # Number of memory ordering violations
system.switch_cpus.iew.lsq.thread0.rescheduledLoads            0                       # Number of loads that were rescheduled
system.switch_cpus.iew.lsq.thread0.squashedLoads        16115                       # Number of loads squashed
system.switch_cpus.iew.lsq.thread0.squashedStores         4584                       # Number of stores squashed
system.switch_cpus.iew.memOrderViolationEvents           65                       # Number of memory order violations
system.switch_cpus.iew.predictedNotTakenIncorrect          905                       # Number of branches that were predicted not taken incorrectly
system.switch_cpus.iew.predictedTakenIncorrect          128                       # Number of branches that were predicted taken incorrectly
system.switch_cpus.iew.wb_consumers           1355745                       # num instructions consuming a value
system.switch_cpus.iew.wb_count               1367245                       # cumulative count of insts written-back
system.switch_cpus.iew.wb_fanout             0.866001                       # average fanout of values written-back
system.switch_cpus.iew.wb_producers           1174077                       # num instructions producing a value
system.switch_cpus.iew.wb_rate               2.250153                       # insts written-back per cycle
system.switch_cpus.iew.wb_sent                1367661                       # cumulative count of insts sent to commit
system.switch_cpus.int_regfile_reads          2287570                       # number of integer regfile reads
system.switch_cpus.int_regfile_writes         1205728                       # number of integer regfile writes
system.switch_cpus.ipc                       1.645759                       # IPC: Instructions Per Cycle
system.switch_cpus.ipc_total                 1.645759                       # IPC: Total IPC of All Threads
system.switch_cpus.iq.FU_type_0::No_OpClass            3      0.00%      0.00% # Type of FU issued
system.switch_cpus.iq.FU_type_0::IntAlu        850595     62.08%     62.08% # Type of FU issued
system.switch_cpus.iq.FU_type_0::IntMult          407      0.03%     62.11% # Type of FU issued
system.switch_cpus.iq.FU_type_0::IntDiv             0      0.00%     62.11% # Type of FU issued
system.switch_cpus.iq.FU_type_0::FloatAdd            0      0.00%     62.11% # Type of FU issued
system.switch_cpus.iq.FU_type_0::FloatCmp            0      0.00%     62.11% # Type of FU issued
system.switch_cpus.iq.FU_type_0::FloatCvt            0      0.00%     62.11% # Type of FU issued
system.switch_cpus.iq.FU_type_0::FloatMult            0      0.00%     62.11% # Type of FU issued
system.switch_cpus.iq.FU_type_0::FloatMultAcc            0      0.00%     62.11% # Type of FU issued
system.switch_cpus.iq.FU_type_0::FloatDiv            0      0.00%     62.11% # Type of FU issued
system.switch_cpus.iq.FU_type_0::FloatMisc            0      0.00%     62.11% # Type of FU issued
system.switch_cpus.iq.FU_type_0::FloatSqrt            0      0.00%     62.11% # Type of FU issued
system.switch_cpus.iq.FU_type_0::SimdAdd            0      0.00%     62.11% # Type of FU issued
system.switch_cpus.iq.FU_type_0::SimdAddAcc            0      0.00%     62.11% # Type of FU issued
system.switch_cpus.iq.FU_type_0::SimdAlu            0      0.00%     62.11% # Type of FU issued
system.switch_cpus.iq.FU_type_0::SimdCmp            0      0.00%     62.11% # Type of FU issued
system.switch_cpus.iq.FU_type_0::SimdCvt            0      0.00%     62.11% # Type of FU issued
system.switch_cpus.iq.FU_type_0::SimdMisc            0      0.00%     62.11% # Type of FU issued
system.switch_cpus.iq.FU_type_0::SimdMult            0      0.00%     62.11% # Type of FU issued
system.switch_cpus.iq.FU_type_0::SimdMultAcc            0      0.00%     62.11% # Type of FU issued
system.switch_cpus.iq.FU_type_0::SimdShift            0      0.00%     62.11% # Type of FU issued
system.switch_cpus.iq.FU_type_0::SimdShiftAcc            0      0.00%     62.11% # Type of FU issued
system.switch_cpus.iq.FU_type_0::SimdDiv            0      0.00%     62.11% # Type of FU issued
system.switch_cpus.iq.FU_type_0::SimdSqrt            0      0.00%     62.11% # Type of FU issued
system.switch_cpus.iq.FU_type_0::SimdFloatAdd            0      0.00%     62.11% # Type of FU issued
system.switch_cpus.iq.FU_type_0::SimdFloatAlu            0      0.00%     62.11% # Type of FU issued
system.switch_cpus.iq.FU_type_0::SimdFloatCmp            0      0.00%     62.11% # Type of FU issued
system.switch_cpus.iq.FU_type_0::SimdFloatCvt            0      0.00%     62.11% # Type of FU issued
system.switch_cpus.iq.FU_type_0::SimdFloatDiv            0      0.00%     62.11% # Type of FU issued
system.switch_cpus.iq.FU_type_0::SimdFloatMisc            0      0.00%     62.11% # Type of FU issued
system.switch_cpus.iq.FU_type_0::SimdFloatMult            0      0.00%     62.11% # Type of FU issued
system.switch_cpus.iq.FU_type_0::SimdFloatMultAcc            0      0.00%     62.11% # Type of FU issued
system.switch_cpus.iq.FU_type_0::SimdFloatSqrt            0      0.00%     62.11% # Type of FU issued
system.switch_cpus.iq.FU_type_0::SimdReduceAdd            0      0.00%     62.11% # Type of FU issued
system.switch_cpus.iq.FU_type_0::SimdReduceAlu            0      0.00%     62.11% # Type of FU issued
system.switch_cpus.iq.FU_type_0::SimdReduceCmp            0      0.00%     62.11% # Type of FU issued
system.switch_cpus.iq.FU_type_0::SimdFloatReduceAdd            0      0.00%     62.11% # Type of FU issued
system.switch_cpus.iq.FU_type_0::SimdFloatReduceCmp            0      0.00%     62.11% # Type of FU issued
system.switch_cpus.iq.FU_type_0::SimdAes            0      0.00%     62.11% # Type of FU issued
system.switch_cpus.iq.FU_type_0::SimdAesMix            0      0.00%     62.11% # Type of FU issued
system.switch_cpus.iq.FU_type_0::SimdSha1Hash            0      0.00%     62.11% # Type of FU issued
system.switch_cpus.iq.FU_type_0::SimdSha1Hash2            0      0.00%     62.11% # Type of FU issued
system.switch_cpus.iq.FU_type_0::SimdSha256Hash            0      0.00%     62.11% # Type of FU issued
system.switch_cpus.iq.FU_type_0::SimdSha256Hash2            0      0.00%     62.11% # Type of FU issued
system.switch_cpus.iq.FU_type_0::SimdShaSigma2            0      0.00%     62.11% # Type of FU issued
system.switch_cpus.iq.FU_type_0::SimdShaSigma3            0      0.00%     62.11% # Type of FU issued
system.switch_cpus.iq.FU_type_0::SimdPredAlu            0      0.00%     62.11% # Type of FU issued
system.switch_cpus.iq.FU_type_0::MemRead       419524     30.62%     92.73% # Type of FU issued
system.switch_cpus.iq.FU_type_0::MemWrite        99640      7.27%    100.00% # Type of FU issued
system.switch_cpus.iq.FU_type_0::FloatMemRead            0      0.00%    100.00% # Type of FU issued
system.switch_cpus.iq.FU_type_0::FloatMemWrite            0      0.00%    100.00% # Type of FU issued
system.switch_cpus.iq.FU_type_0::IprAccess            0      0.00%    100.00% # Type of FU issued
system.switch_cpus.iq.FU_type_0::InstPrefetch            0      0.00%    100.00% # Type of FU issued
system.switch_cpus.iq.FU_type_0::total        1370169                       # Type of FU issued
system.switch_cpus.iq.fp_alu_accesses               0                       # Number of floating point alu accesses
system.switch_cpus.iq.fp_inst_queue_reads            0                       # Number of floating instruction queue reads
system.switch_cpus.iq.fp_inst_queue_wakeup_accesses            0                       # Number of floating instruction queue wakeup accesses
system.switch_cpus.iq.fp_inst_queue_writes            0                       # Number of floating instruction queue writes
system.switch_cpus.iq.fu_busy_cnt               20588                       # FU busy when requested
system.switch_cpus.iq.fu_busy_rate           0.015026                       # FU busy rate (busy events/executed inst)
system.switch_cpus.iq.fu_full::No_OpClass            0      0.00%      0.00% # attempts to use FU when none available
system.switch_cpus.iq.fu_full::IntAlu             169      0.82%      0.82% # attempts to use FU when none available
system.switch_cpus.iq.fu_full::IntMult              0      0.00%      0.82% # attempts to use FU when none available
system.switch_cpus.iq.fu_full::IntDiv               0      0.00%      0.82% # attempts to use FU when none available
system.switch_cpus.iq.fu_full::FloatAdd             0      0.00%      0.82% # attempts to use FU when none available
system.switch_cpus.iq.fu_full::FloatCmp             0      0.00%      0.82% # attempts to use FU when none available
system.switch_cpus.iq.fu_full::FloatCvt             0      0.00%      0.82% # attempts to use FU when none available
system.switch_cpus.iq.fu_full::FloatMult            0      0.00%      0.82% # attempts to use FU when none available
system.switch_cpus.iq.fu_full::FloatMultAcc            0      0.00%      0.82% # attempts to use FU when none available
system.switch_cpus.iq.fu_full::FloatDiv             0      0.00%      0.82% # attempts to use FU when none available
system.switch_cpus.iq.fu_full::FloatMisc            0      0.00%      0.82% # attempts to use FU when none available
system.switch_cpus.iq.fu_full::FloatSqrt            0      0.00%      0.82% # attempts to use FU when none available
system.switch_cpus.iq.fu_full::SimdAdd              0      0.00%      0.82% # attempts to use FU when none available
system.switch_cpus.iq.fu_full::SimdAddAcc            0      0.00%      0.82% # attempts to use FU when none available
system.switch_cpus.iq.fu_full::SimdAlu              0      0.00%      0.82% # attempts to use FU when none available
system.switch_cpus.iq.fu_full::SimdCmp              0      0.00%      0.82% # attempts to use FU when none available
system.switch_cpus.iq.fu_full::SimdCvt              0      0.00%      0.82% # attempts to use FU when none available
system.switch_cpus.iq.fu_full::SimdMisc             0      0.00%      0.82% # attempts to use FU when none available
system.switch_cpus.iq.fu_full::SimdMult             0      0.00%      0.82% # attempts to use FU when none available
system.switch_cpus.iq.fu_full::SimdMultAcc            0      0.00%      0.82% # attempts to use FU when none available
system.switch_cpus.iq.fu_full::SimdShift            0      0.00%      0.82% # attempts to use FU when none available
system.switch_cpus.iq.fu_full::SimdShiftAcc            0      0.00%      0.82% # attempts to use FU when none available
system.switch_cpus.iq.fu_full::SimdDiv              0      0.00%      0.82% # attempts to use FU when none available
system.switch_cpus.iq.fu_full::SimdSqrt             0      0.00%      0.82% # attempts to use FU when none available
system.switch_cpus.iq.fu_full::SimdFloatAdd            0      0.00%      0.82% # attempts to use FU when none available
system.switch_cpus.iq.fu_full::SimdFloatAlu            0      0.00%      0.82% # attempts to use FU when none available
system.switch_cpus.iq.fu_full::SimdFloatCmp            0      0.00%      0.82% # attempts to use FU when none available
system.switch_cpus.iq.fu_full::SimdFloatCvt            0      0.00%      0.82% # attempts to use FU when none available
system.switch_cpus.iq.fu_full::SimdFloatDiv            0      0.00%      0.82% # attempts to use FU when none available
system.switch_cpus.iq.fu_full::SimdFloatMisc            0      0.00%      0.82% # attempts to use FU when none available
system.switch_cpus.iq.fu_full::SimdFloatMult            0      0.00%      0.82% # attempts to use FU when none available
system.switch_cpus.iq.fu_full::SimdFloatMultAcc            0      0.00%      0.82% # attempts to use FU when none available
system.switch_cpus.iq.fu_full::SimdFloatSqrt            0      0.00%      0.82% # attempts to use FU when none available
system.switch_cpus.iq.fu_full::SimdReduceAdd            0      0.00%      0.82% # attempts to use FU when none available
system.switch_cpus.iq.fu_full::SimdReduceAlu            0      0.00%      0.82% # attempts to use FU when none available
system.switch_cpus.iq.fu_full::SimdReduceCmp            0      0.00%      0.82% # attempts to use FU when none available
system.switch_cpus.iq.fu_full::SimdFloatReduceAdd            0      0.00%      0.82% # attempts to use FU when none available
system.switch_cpus.iq.fu_full::SimdFloatReduceCmp            0      0.00%      0.82% # attempts to use FU when none available
system.switch_cpus.iq.fu_full::SimdAes              0      0.00%      0.82% # attempts to use FU when none available
system.switch_cpus.iq.fu_full::SimdAesMix            0      0.00%      0.82% # attempts to use FU when none available
system.switch_cpus.iq.fu_full::SimdSha1Hash            0      0.00%      0.82% # attempts to use FU when none available
system.switch_cpus.iq.fu_full::SimdSha1Hash2            0      0.00%      0.82% # attempts to use FU when none available
system.switch_cpus.iq.fu_full::SimdSha256Hash            0      0.00%      0.82% # attempts to use FU when none available
system.switch_cpus.iq.fu_full::SimdSha256Hash2            0      0.00%      0.82% # attempts to use FU when none available
system.switch_cpus.iq.fu_full::SimdShaSigma2            0      0.00%      0.82% # attempts to use FU when none available
system.switch_cpus.iq.fu_full::SimdShaSigma3            0      0.00%      0.82% # attempts to use FU when none available
system.switch_cpus.iq.fu_full::SimdPredAlu            0      0.00%      0.82% # attempts to use FU when none available
system.switch_cpus.iq.fu_full::MemRead          20406     99.12%     99.94% # attempts to use FU when none available
system.switch_cpus.iq.fu_full::MemWrite            13      0.06%    100.00% # attempts to use FU when none available
system.switch_cpus.iq.fu_full::FloatMemRead            0      0.00%    100.00% # attempts to use FU when none available
system.switch_cpus.iq.fu_full::FloatMemWrite            0      0.00%    100.00% # attempts to use FU when none available
system.switch_cpus.iq.fu_full::IprAccess            0      0.00%    100.00% # attempts to use FU when none available
system.switch_cpus.iq.fu_full::InstPrefetch            0      0.00%    100.00% # attempts to use FU when none available
system.switch_cpus.iq.int_alu_accesses        1390754                       # Number of integer alu accesses
system.switch_cpus.iq.int_inst_queue_reads      3368149                       # Number of integer instruction queue reads
system.switch_cpus.iq.int_inst_queue_wakeup_accesses      1367245                       # Number of integer instruction queue wakeup accesses
system.switch_cpus.iq.int_inst_queue_writes      1456792                       # Number of integer instruction queue writes
system.switch_cpus.iq.iqInstsAdded            1401544                       # Number of instructions added to the IQ (excludes non-spec)
system.switch_cpus.iq.iqInstsIssued           1370169                       # Number of instructions issued
system.switch_cpus.iq.iqSquashedInstsExamined        55183                       # Number of squashed instructions iterated over during squash; mainly for profiling
system.switch_cpus.iq.iqSquashedInstsIssued           31                       # Number of squashed instructions issued
system.switch_cpus.iq.iqSquashedOperandsExamined        99599                       # Number of squashed operands that are examined and possibly removed from graph
system.switch_cpus.iq.issued_per_cycle::samples       607194                       # Number of insts issued each cycle
system.switch_cpus.iq.issued_per_cycle::mean     2.256559                       # Number of insts issued each cycle
system.switch_cpus.iq.issued_per_cycle::stdev     1.504544                       # Number of insts issued each cycle
system.switch_cpus.iq.issued_per_cycle::underflows            0      0.00%      0.00% # Number of insts issued each cycle
system.switch_cpus.iq.issued_per_cycle::0        86220     14.20%     14.20% # Number of insts issued each cycle
system.switch_cpus.iq.issued_per_cycle::1       127181     20.95%     35.15% # Number of insts issued each cycle
system.switch_cpus.iq.issued_per_cycle::2       121821     20.06%     55.21% # Number of insts issued each cycle
system.switch_cpus.iq.issued_per_cycle::3       137809     22.70%     77.90% # Number of insts issued each cycle
system.switch_cpus.iq.issued_per_cycle::4        91354     15.05%     92.95% # Number of insts issued each cycle
system.switch_cpus.iq.issued_per_cycle::5        39466      6.50%     99.45% # Number of insts issued each cycle
system.switch_cpus.iq.issued_per_cycle::6         1447      0.24%     99.69% # Number of insts issued each cycle
system.switch_cpus.iq.issued_per_cycle::7          677      0.11%     99.80% # Number of insts issued each cycle
system.switch_cpus.iq.issued_per_cycle::8         1219      0.20%    100.00% # Number of insts issued each cycle
system.switch_cpus.iq.issued_per_cycle::overflows            0      0.00%    100.00% # Number of insts issued each cycle
system.switch_cpus.iq.issued_per_cycle::min_value            0                       # Number of insts issued each cycle
system.switch_cpus.iq.issued_per_cycle::max_value            8                       # Number of insts issued each cycle
system.switch_cpus.iq.issued_per_cycle::total       607194                       # Number of insts issued each cycle
system.switch_cpus.iq.rate                   2.254966                       # Inst issue rate
system.switch_cpus.iq.vec_alu_accesses              0                       # Number of vector alu accesses
system.switch_cpus.iq.vec_inst_queue_reads            0                       # Number of vector instruction queue reads
system.switch_cpus.iq.vec_inst_queue_wakeup_accesses            0                       # Number of vector instruction queue wakeup accesses
system.switch_cpus.iq.vec_inst_queue_writes            0                       # Number of vector instruction queue writes
system.switch_cpus.itb.rdAccesses                   0                       # TLB accesses on read requests
system.switch_cpus.itb.rdMisses                     0                       # TLB misses on read requests
system.switch_cpus.itb.wrAccesses               86998                       # TLB accesses on write requests
system.switch_cpus.itb.wrMisses                     1                       # TLB misses on write requests
system.switch_cpus.memDep0.conflictingLoads       262437                       # Number of conflicting loads.
system.switch_cpus.memDep0.conflictingStores        98079                       # Number of conflicting stores.
system.switch_cpus.memDep0.insertedLoads       428534                       # Number of loads inserted to the mem dependence unit.
system.switch_cpus.memDep0.insertedStores       103225                       # Number of stores inserted to the mem dependence unit.
system.switch_cpus.misc_regfile_reads          644567                       # number of misc regfile reads
system.switch_cpus.misc_regfile_writes              1                       # number of misc regfile writes
system.switch_cpus.numCycles                   607623                       # number of cpu cycles simulated
system.switch_cpus.numWorkItemsCompleted            0                       # number of work items this cpu completed
system.switch_cpus.numWorkItemsStarted              0                       # number of work items this cpu started
system.switch_cpus.rename.BlockCycles           55394                       # Number of cycles rename is blocking
system.switch_cpus.rename.CommittedMaps       1738100                       # Number of HB maps that are committed
system.switch_cpus.rename.IQFullEvents         321319                       # Number of times rename has blocked due to IQ full
system.switch_cpus.rename.IdleCycles            93948                       # Number of cycles rename is idle
system.switch_cpus.rename.LQFullEvents            546                       # Number of times rename has blocked due to LQ full
system.switch_cpus.rename.ROBFullEvents             1                       # Number of times rename has blocked due to ROB full
system.switch_cpus.rename.RenameLookups       3352375                       # Number of register rename lookups that rename has made
system.switch_cpus.rename.RenamedInsts        1407623                       # Number of instructions processed by rename
system.switch_cpus.rename.RenamedOperands      1813301                       # Number of destination operands rename has renamed
system.switch_cpus.rename.RunCycles            127646                       # Number of cycles rename is running
system.switch_cpus.rename.SquashCycles           1018                       # Number of cycles rename is squashing
system.switch_cpus.rename.UnblockCycles        329182                       # Number of cycles rename is unblocking
system.switch_cpus.rename.UndoneMaps            75085                       # Number of HB maps that are undone due to squashing
system.switch_cpus.rename.int_rename_lookups      2372111                       # Number of integer rename lookups
system.switch_cpus.rename.serializeStallCycles            0                       # count of cycles rename stalled for serializing inst
system.switch_cpus.rename.serializingInsts            0                       # count of serializing insts renamed
system.switch_cpus.rename.skidInsts            681090                       # count of insts added to the skid buffer
system.switch_cpus.rename.tempSerializingInsts            0                       # count of temporary serializing insts renamed
system.switch_cpus.rob.rob_reads              1960105                       # The number of ROB reads
system.switch_cpus.rob.rob_writes             2811114                       # The number of ROB writes
system.switch_cpus.timesIdled                       3                       # Number of times that the entire CPU went into an idle state and unscheduled itself
system.tol2bus.snoop_filter.hit_multi_requests            0                       # Number of requests hitting in the snoop filter with multiple (>1) holders of the requested data.
system.tol2bus.snoop_filter.hit_multi_snoops            0                       # Number of snoops hitting in the snoop filter with multiple (>1) holders of the requested data.
system.tol2bus.snoop_filter.hit_single_requests            2                       # Number of requests hitting in the snoop filter with a single holder of the requested data.
system.tol2bus.snoop_filter.hit_single_snoops            0                       # Number of snoops hitting in the snoop filter with a single holder of the requested data.
system.tol2bus.snoop_filter.tot_requests           28                       # Total number of requests made to the snoop filter.
system.tol2bus.snoop_filter.tot_snoops              0                       # Total number of snoops made to the snoop filter.
system.membus.pwrStateResidencyTicks::UNDEFINED 412246468500                       # Cumulative time (in ticks) in various power states
system.membus.trans_dist::ReadResp                 25                       # Transaction distribution
system.membus.trans_dist::ReadExReq                 1                       # Transaction distribution
system.membus.trans_dist::ReadExResp                1                       # Transaction distribution
system.membus.trans_dist::ReadSharedReq            25                       # Transaction distribution
system.membus.pkt_count_system.l2.mem_side::system.mem_ctrls.port           52                       # Packet count per connected master and slave (bytes)
system.membus.pkt_count_system.l2.mem_side::total           52                       # Packet count per connected master and slave (bytes)
system.membus.pkt_count::total                     52                       # Packet count per connected master and slave (bytes)
system.membus.pkt_size_system.l2.mem_side::system.mem_ctrls.port         1664                       # Cumulative packet size per connected master and slave (bytes)
system.membus.pkt_size_system.l2.mem_side::total         1664                       # Cumulative packet size per connected master and slave (bytes)
system.membus.pkt_size::total                    1664                       # Cumulative packet size per connected master and slave (bytes)
system.membus.snoops                                0                       # Total snoops (count)
system.membus.snoopTraffic                          0                       # Total snoop traffic (bytes)
system.membus.snoop_fanout::samples                26                       # Request fanout histogram
system.membus.snoop_fanout::mean                    0                       # Request fanout histogram
system.membus.snoop_fanout::stdev                   0                       # Request fanout histogram
system.membus.snoop_fanout::underflows              0      0.00%      0.00% # Request fanout histogram
system.membus.snoop_fanout::0                      26    100.00%    100.00% # Request fanout histogram
system.membus.snoop_fanout::1                       0      0.00%    100.00% # Request fanout histogram
system.membus.snoop_fanout::overflows               0      0.00%    100.00% # Request fanout histogram
system.membus.snoop_fanout::min_value               0                       # Request fanout histogram
system.membus.snoop_fanout::max_value               0                       # Request fanout histogram
system.membus.snoop_fanout::total                  26                       # Request fanout histogram
system.membus.reqLayer2.occupancy               26000                       # Layer occupancy (ticks)
system.membus.reqLayer2.utilization               0.0                       # Layer utilization (%)
system.membus.respLayer1.occupancy             112000                       # Layer occupancy (ticks)
system.membus.respLayer1.utilization              0.0                       # Layer utilization (%)
system.switch_cpus.pwrStateResidencyTicks::OFF    303821500                       # Cumulative time (in ticks) in various power states
system.switch_cpus.dtb.walker.pwrStateResidencyTicks::UNDEFINED 412246468500                       # Cumulative time (in ticks) in various power states
system.switch_cpus.itb.walker.pwrStateResidencyTicks::UNDEFINED 412246468500                       # Cumulative time (in ticks) in various power states
system.tol2bus.pwrStateResidencyTicks::UNDEFINED 412246468500                       # Cumulative time (in ticks) in various power states
system.tol2bus.trans_dist::ReadResp                27                       # Transaction distribution
system.tol2bus.trans_dist::ReadExReq                1                       # Transaction distribution
system.tol2bus.trans_dist::ReadExResp               1                       # Transaction distribution
system.tol2bus.trans_dist::ReadCleanReq            12                       # Transaction distribution
system.tol2bus.trans_dist::ReadSharedReq           15                       # Transaction distribution
system.tol2bus.pkt_count_system.cpu.icache.mem_side::system.l2.cpu_side           24                       # Packet count per connected master and slave (bytes)
system.tol2bus.pkt_count_system.cpu.dcache.mem_side::system.l2.cpu_side           32                       # Packet count per connected master and slave (bytes)
system.tol2bus.pkt_count::total                    56                       # Packet count per connected master and slave (bytes)
system.tol2bus.pkt_size_system.cpu.icache.mem_side::system.l2.cpu_side          768                       # Cumulative packet size per connected master and slave (bytes)
system.tol2bus.pkt_size_system.cpu.dcache.mem_side::system.l2.cpu_side         1024                       # Cumulative packet size per connected master and slave (bytes)
system.tol2bus.pkt_size::total                   1792                       # Cumulative packet size per connected master and slave (bytes)
system.tol2bus.snoops                               0                       # Total snoops (count)
system.tol2bus.snoopTraffic                         0                       # Total snoop traffic (bytes)
system.tol2bus.snoop_fanout::samples               28                       # Request fanout histogram
system.tol2bus.snoop_fanout::mean            0.071429                       # Request fanout histogram
system.tol2bus.snoop_fanout::stdev           0.262265                       # Request fanout histogram
system.tol2bus.snoop_fanout::underflows             0      0.00%      0.00% # Request fanout histogram
system.tol2bus.snoop_fanout::0                     26     92.86%     92.86% # Request fanout histogram
system.tol2bus.snoop_fanout::1                      2      7.14%    100.00% # Request fanout histogram
system.tol2bus.snoop_fanout::2                      0      0.00%    100.00% # Request fanout histogram
system.tol2bus.snoop_fanout::3                      0      0.00%    100.00% # Request fanout histogram
system.tol2bus.snoop_fanout::4                      0      0.00%    100.00% # Request fanout histogram
system.tol2bus.snoop_fanout::overflows              0      0.00%    100.00% # Request fanout histogram
system.tol2bus.snoop_fanout::min_value              0                       # Request fanout histogram
system.tol2bus.snoop_fanout::max_value              1                       # Request fanout histogram
system.tol2bus.snoop_fanout::total                 28                       # Request fanout histogram
system.tol2bus.reqLayer0.occupancy              11500                       # Layer occupancy (ticks)
system.tol2bus.reqLayer0.utilization              0.0                       # Layer utilization (%)
system.tol2bus.respLayer1.occupancy             19500                       # Layer occupancy (ticks)
system.tol2bus.respLayer1.utilization             0.0                       # Layer utilization (%)
system.tol2bus.respLayer0.occupancy             15000                       # Layer occupancy (ticks)
system.tol2bus.respLayer0.utilization             0.0                       # Layer utilization (%)
system.voltage_domain.voltage                       1                       # Voltage in Volts
system.clk_domain.clock                          1000                       # Clock period in ticks
system.l2.pwrStateResidencyTicks::UNDEFINED 412246468500                       # Cumulative time (in ticks) in various power states
system.l2.demand_hits::.switch_cpus.data            2                       # number of demand (read+write) hits
system.l2.demand_hits::total                        2                       # number of demand (read+write) hits
system.l2.overall_hits::.switch_cpus.data            2                       # number of overall hits
system.l2.overall_hits::total                       2                       # number of overall hits
system.l2.demand_misses::.cpu.inst                  2                       # number of demand (read+write) misses
system.l2.demand_misses::.cpu.data                  3                       # number of demand (read+write) misses
system.l2.demand_misses::.switch_cpus.inst           10                       # number of demand (read+write) misses
system.l2.demand_misses::.switch_cpus.data           11                       # number of demand (read+write) misses
system.l2.demand_misses::total                     26                       # number of demand (read+write) misses
system.l2.overall_misses::.cpu.inst                 2                       # number of overall misses
system.l2.overall_misses::.cpu.data                 3                       # number of overall misses
system.l2.overall_misses::.switch_cpus.inst           10                       # number of overall misses
system.l2.overall_misses::.switch_cpus.data           11                       # number of overall misses
system.l2.overall_misses::total                    26                       # number of overall misses
system.l2.demand_miss_latency::.switch_cpus.inst       754500                       # number of demand (read+write) miss cycles
system.l2.demand_miss_latency::.switch_cpus.data       898000                       # number of demand (read+write) miss cycles
system.l2.demand_miss_latency::total          1652500                       # number of demand (read+write) miss cycles
system.l2.overall_miss_latency::.switch_cpus.inst       754500                       # number of overall miss cycles
system.l2.overall_miss_latency::.switch_cpus.data       898000                       # number of overall miss cycles
system.l2.overall_miss_latency::total         1652500                       # number of overall miss cycles
system.l2.demand_accesses::.cpu.inst                2                       # number of demand (read+write) accesses
system.l2.demand_accesses::.cpu.data                3                       # number of demand (read+write) accesses
system.l2.demand_accesses::.switch_cpus.inst           10                       # number of demand (read+write) accesses
system.l2.demand_accesses::.switch_cpus.data           13                       # number of demand (read+write) accesses
system.l2.demand_accesses::total                   28                       # number of demand (read+write) accesses
system.l2.overall_accesses::.cpu.inst               2                       # number of overall (read+write) accesses
system.l2.overall_accesses::.cpu.data               3                       # number of overall (read+write) accesses
system.l2.overall_accesses::.switch_cpus.inst           10                       # number of overall (read+write) accesses
system.l2.overall_accesses::.switch_cpus.data           13                       # number of overall (read+write) accesses
system.l2.overall_accesses::total                  28                       # number of overall (read+write) accesses
system.l2.demand_miss_rate::.cpu.inst               1                       # miss rate for demand accesses
system.l2.demand_miss_rate::.cpu.data               1                       # miss rate for demand accesses
system.l2.demand_miss_rate::.switch_cpus.inst            1                       # miss rate for demand accesses
system.l2.demand_miss_rate::.switch_cpus.data     0.846154                       # miss rate for demand accesses
system.l2.demand_miss_rate::total            0.928571                       # miss rate for demand accesses
system.l2.overall_miss_rate::.cpu.inst              1                       # miss rate for overall accesses
system.l2.overall_miss_rate::.cpu.data              1                       # miss rate for overall accesses
system.l2.overall_miss_rate::.switch_cpus.inst            1                       # miss rate for overall accesses
system.l2.overall_miss_rate::.switch_cpus.data     0.846154                       # miss rate for overall accesses
system.l2.overall_miss_rate::total           0.928571                       # miss rate for overall accesses
system.l2.demand_avg_miss_latency::.switch_cpus.inst        75450                       # average overall miss latency
system.l2.demand_avg_miss_latency::.switch_cpus.data 81636.363636                       # average overall miss latency
system.l2.demand_avg_miss_latency::total 63557.692308                       # average overall miss latency
system.l2.overall_avg_miss_latency::.switch_cpus.inst        75450                       # average overall miss latency
system.l2.overall_avg_miss_latency::.switch_cpus.data 81636.363636                       # average overall miss latency
system.l2.overall_avg_miss_latency::total 63557.692308                       # average overall miss latency
system.l2.blocked_cycles::no_mshrs                  0                       # number of cycles access was blocked
system.l2.blocked_cycles::no_targets                0                       # number of cycles access was blocked
system.l2.blocked::no_mshrs                         0                       # number of cycles access was blocked
system.l2.blocked::no_targets                       0                       # number of cycles access was blocked
system.l2.avg_blocked_cycles::no_mshrs            nan                       # average number of cycles each access was blocked
system.l2.avg_blocked_cycles::no_targets          nan                       # average number of cycles each access was blocked
system.l2.demand_mshr_misses::.switch_cpus.inst           10                       # number of demand (read+write) MSHR misses
system.l2.demand_mshr_misses::.switch_cpus.data           11                       # number of demand (read+write) MSHR misses
system.l2.demand_mshr_misses::total                21                       # number of demand (read+write) MSHR misses
system.l2.overall_mshr_misses::.switch_cpus.inst           10                       # number of overall MSHR misses
system.l2.overall_mshr_misses::.switch_cpus.data           11                       # number of overall MSHR misses
system.l2.overall_mshr_misses::total               21                       # number of overall MSHR misses
system.l2.demand_mshr_miss_latency::.switch_cpus.inst       654500                       # number of demand (read+write) MSHR miss cycles
system.l2.demand_mshr_miss_latency::.switch_cpus.data       788000                       # number of demand (read+write) MSHR miss cycles
system.l2.demand_mshr_miss_latency::total      1442500                       # number of demand (read+write) MSHR miss cycles
system.l2.overall_mshr_miss_latency::.switch_cpus.inst       654500                       # number of overall MSHR miss cycles
system.l2.overall_mshr_miss_latency::.switch_cpus.data       788000                       # number of overall MSHR miss cycles
system.l2.overall_mshr_miss_latency::total      1442500                       # number of overall MSHR miss cycles
system.l2.demand_mshr_miss_rate::.switch_cpus.inst            1                       # mshr miss rate for demand accesses
system.l2.demand_mshr_miss_rate::.switch_cpus.data     0.846154                       # mshr miss rate for demand accesses
system.l2.demand_mshr_miss_rate::total       0.750000                       # mshr miss rate for demand accesses
system.l2.overall_mshr_miss_rate::.switch_cpus.inst            1                       # mshr miss rate for overall accesses
system.l2.overall_mshr_miss_rate::.switch_cpus.data     0.846154                       # mshr miss rate for overall accesses
system.l2.overall_mshr_miss_rate::total      0.750000                       # mshr miss rate for overall accesses
system.l2.demand_avg_mshr_miss_latency::.switch_cpus.inst        65450                       # average overall mshr miss latency
system.l2.demand_avg_mshr_miss_latency::.switch_cpus.data 71636.363636                       # average overall mshr miss latency
system.l2.demand_avg_mshr_miss_latency::total 68690.476190                       # average overall mshr miss latency
system.l2.overall_avg_mshr_miss_latency::.switch_cpus.inst        65450                       # average overall mshr miss latency
system.l2.overall_avg_mshr_miss_latency::.switch_cpus.data 71636.363636                       # average overall mshr miss latency
system.l2.overall_avg_mshr_miss_latency::total 68690.476190                       # average overall mshr miss latency
system.l2.replacements                              0                       # number of replacements
system.l2.ReadExReq_misses::.switch_cpus.data            1                       # number of ReadExReq misses
system.l2.ReadExReq_misses::total                   1                       # number of ReadExReq misses
system.l2.ReadExReq_miss_latency::.switch_cpus.data        84000                       # number of ReadExReq miss cycles
system.l2.ReadExReq_miss_latency::total         84000                       # number of ReadExReq miss cycles
system.l2.ReadExReq_accesses::.switch_cpus.data            1                       # number of ReadExReq accesses(hits+misses)
system.l2.ReadExReq_accesses::total                 1                       # number of ReadExReq accesses(hits+misses)
system.l2.ReadExReq_miss_rate::.switch_cpus.data            1                       # miss rate for ReadExReq accesses
system.l2.ReadExReq_miss_rate::total                1                       # miss rate for ReadExReq accesses
system.l2.ReadExReq_avg_miss_latency::.switch_cpus.data        84000                       # average ReadExReq miss latency
system.l2.ReadExReq_avg_miss_latency::total        84000                       # average ReadExReq miss latency
system.l2.ReadExReq_mshr_misses::.switch_cpus.data            1                       # number of ReadExReq MSHR misses
system.l2.ReadExReq_mshr_misses::total              1                       # number of ReadExReq MSHR misses
system.l2.ReadExReq_mshr_miss_latency::.switch_cpus.data        74000                       # number of ReadExReq MSHR miss cycles
system.l2.ReadExReq_mshr_miss_latency::total        74000                       # number of ReadExReq MSHR miss cycles
system.l2.ReadExReq_mshr_miss_rate::.switch_cpus.data            1                       # mshr miss rate for ReadExReq accesses
system.l2.ReadExReq_mshr_miss_rate::total            1                       # mshr miss rate for ReadExReq accesses
system.l2.ReadExReq_avg_mshr_miss_latency::.switch_cpus.data        74000                       # average ReadExReq mshr miss latency
system.l2.ReadExReq_avg_mshr_miss_latency::total        74000                       # average ReadExReq mshr miss latency
system.l2.ReadCleanReq_misses::.cpu.inst            2                       # number of ReadCleanReq misses
system.l2.ReadCleanReq_misses::.switch_cpus.inst           10                       # number of ReadCleanReq misses
system.l2.ReadCleanReq_misses::total               12                       # number of ReadCleanReq misses
system.l2.ReadCleanReq_miss_latency::.switch_cpus.inst       754500                       # number of ReadCleanReq miss cycles
system.l2.ReadCleanReq_miss_latency::total       754500                       # number of ReadCleanReq miss cycles
system.l2.ReadCleanReq_accesses::.cpu.inst            2                       # number of ReadCleanReq accesses(hits+misses)
system.l2.ReadCleanReq_accesses::.switch_cpus.inst           10                       # number of ReadCleanReq accesses(hits+misses)
system.l2.ReadCleanReq_accesses::total             12                       # number of ReadCleanReq accesses(hits+misses)
system.l2.ReadCleanReq_miss_rate::.cpu.inst            1                       # miss rate for ReadCleanReq accesses
system.l2.ReadCleanReq_miss_rate::.switch_cpus.inst            1                       # miss rate for ReadCleanReq accesses
system.l2.ReadCleanReq_miss_rate::total             1                       # miss rate for ReadCleanReq accesses
system.l2.ReadCleanReq_avg_miss_latency::.switch_cpus.inst        75450                       # average ReadCleanReq miss latency
system.l2.ReadCleanReq_avg_miss_latency::total        62875                       # average ReadCleanReq miss latency
system.l2.ReadCleanReq_mshr_misses::.switch_cpus.inst           10                       # number of ReadCleanReq MSHR misses
system.l2.ReadCleanReq_mshr_misses::total           10                       # number of ReadCleanReq MSHR misses
system.l2.ReadCleanReq_mshr_miss_latency::.switch_cpus.inst       654500                       # number of ReadCleanReq MSHR miss cycles
system.l2.ReadCleanReq_mshr_miss_latency::total       654500                       # number of ReadCleanReq MSHR miss cycles
system.l2.ReadCleanReq_mshr_miss_rate::.switch_cpus.inst            1                       # mshr miss rate for ReadCleanReq accesses
system.l2.ReadCleanReq_mshr_miss_rate::total     0.833333                       # mshr miss rate for ReadCleanReq accesses
system.l2.ReadCleanReq_avg_mshr_miss_latency::.switch_cpus.inst        65450                       # average ReadCleanReq mshr miss latency
system.l2.ReadCleanReq_avg_mshr_miss_latency::total        65450                       # average ReadCleanReq mshr miss latency
system.l2.ReadSharedReq_hits::.switch_cpus.data            2                       # number of ReadSharedReq hits
system.l2.ReadSharedReq_hits::total                 2                       # number of ReadSharedReq hits
system.l2.ReadSharedReq_misses::.cpu.data            3                       # number of ReadSharedReq misses
system.l2.ReadSharedReq_misses::.switch_cpus.data           10                       # number of ReadSharedReq misses
system.l2.ReadSharedReq_misses::total              13                       # number of ReadSharedReq misses
system.l2.ReadSharedReq_miss_latency::.switch_cpus.data       814000                       # number of ReadSharedReq miss cycles
system.l2.ReadSharedReq_miss_latency::total       814000                       # number of ReadSharedReq miss cycles
system.l2.ReadSharedReq_accesses::.cpu.data            3                       # number of ReadSharedReq accesses(hits+misses)
system.l2.ReadSharedReq_accesses::.switch_cpus.data           12                       # number of ReadSharedReq accesses(hits+misses)
system.l2.ReadSharedReq_accesses::total            15                       # number of ReadSharedReq accesses(hits+misses)
system.l2.ReadSharedReq_miss_rate::.cpu.data            1                       # miss rate for ReadSharedReq accesses
system.l2.ReadSharedReq_miss_rate::.switch_cpus.data     0.833333                       # miss rate for ReadSharedReq accesses
system.l2.ReadSharedReq_miss_rate::total     0.866667                       # miss rate for ReadSharedReq accesses
system.l2.ReadSharedReq_avg_miss_latency::.switch_cpus.data        81400                       # average ReadSharedReq miss latency
system.l2.ReadSharedReq_avg_miss_latency::total 62615.384615                       # average ReadSharedReq miss latency
system.l2.ReadSharedReq_mshr_misses::.switch_cpus.data           10                       # number of ReadSharedReq MSHR misses
system.l2.ReadSharedReq_mshr_misses::total           10                       # number of ReadSharedReq MSHR misses
system.l2.ReadSharedReq_mshr_miss_latency::.switch_cpus.data       714000                       # number of ReadSharedReq MSHR miss cycles
system.l2.ReadSharedReq_mshr_miss_latency::total       714000                       # number of ReadSharedReq MSHR miss cycles
system.l2.ReadSharedReq_mshr_miss_rate::.switch_cpus.data     0.833333                       # mshr miss rate for ReadSharedReq accesses
system.l2.ReadSharedReq_mshr_miss_rate::total     0.666667                       # mshr miss rate for ReadSharedReq accesses
system.l2.ReadSharedReq_avg_mshr_miss_latency::.switch_cpus.data        71400                       # average ReadSharedReq mshr miss latency
[...]
system.cpu.icache.tags.occ_task_id_blocks::1024           12                       # Occupied blocks per task id
system.cpu.icache.tags.age_task_id_blocks_1024::3           12                       # Occupied blocks per task id
system.cpu.icache.tags.occ_task_id_percent::1024     0.023438                       # Percentage of cache occupancy per task id
system.cpu.icache.tags.tag_accesses           1866412                       # Number of tag accesses
system.cpu.icache.tags.data_accesses          1866412                       # Number of data accesses
system.cpu.dtb.walker.pwrStateResidencyTicks::UNDEFINED 415241242000                       # Cumulative time (in ticks) in various power states
system.cpu.interrupts.clk_domain.clock           8000                       # Clock period in ticks
system.cpu.itb_walker_cache.pwrStateResidencyTicks::UNDEFINED 415241242000                       # Cumulative time (in ticks) in various power states
system.cpu.itb_walker_cache.blocked_cycles::no_mshrs            0                       # number of cycles access was blocked
system.cpu.itb_walker_cache.blocked_cycles::no_targets            0                       # number of cycles access was blocked
system.cpu.itb_walker_cache.blocked::no_mshrs            0                       # number of cycles access was blocked
system.cpu.itb_walker_cache.blocked::no_targets            0                       # number of cycles access was blocked
system.cpu.itb_walker_cache.avg_blocked_cycles::no_mshrs          nan                       # average number of cycles each access was blocked
system.cpu.itb_walker_cache.avg_blocked_cycles::no_targets          nan                       # average number of cycles each access was blocked
system.cpu.itb_walker_cache.replacements            0                       # number of replacements
system.cpu.itb_walker_cache.tags.pwrStateResidencyTicks::UNDEFINED 415241242000                       # Cumulative time (in ticks) in various power states
system.cpu.itb_walker_cache.tags.tagsinuse            0                       # Cycle average of tags in use
system.cpu.itb_walker_cache.tags.total_refs            0                       # Total number of references to valid blocks.
system.cpu.itb_walker_cache.tags.sampled_refs            0                       # Sample count of references to valid blocks.
system.cpu.itb_walker_cache.tags.avg_refs          nan                       # Average number of references to valid blocks.
system.cpu.itb_walker_cache.tags.warmup_cycle            0                       # Cycle when the warmup percentage was hit.
system.cpu.itb_walker_cache.tags.tag_accesses            0                       # Number of tag accesses
system.cpu.itb_walker_cache.tags.data_accesses            0                       # Number of data accesses
system.cpu.itb.walker.pwrStateResidencyTicks::UNDEFINED 415241242000                       # Cumulative time (in ticks) in various power states
system.cpu.dtb_walker_cache.pwrStateResidencyTicks::UNDEFINED 415241242000                       # Cumulative time (in ticks) in various power states
system.cpu.dtb_walker_cache.blocked_cycles::no_mshrs            0                       # number of cycles access was blocked
system.cpu.dtb_walker_cache.blocked_cycles::no_targets            0                       # number of cycles access was blocked
system.cpu.dtb_walker_cache.blocked::no_mshrs            0                       # number of cycles access was blocked
system.cpu.dtb_walker_cache.blocked::no_targets            0                       # number of cycles access was blocked
system.cpu.dtb_walker_cache.avg_blocked_cycles::no_mshrs          nan                       # average number of cycles each access was blocked
system.cpu.dtb_walker_cache.avg_blocked_cycles::no_targets          nan                       # average number of cycles each access was blocked
system.cpu.dtb_walker_cache.replacements            0                       # number of replacements
system.cpu.dtb_walker_cache.tags.pwrStateResidencyTicks::UNDEFINED 415241242000                       # Cumulative time (in ticks) in various power states
system.cpu.dtb_walker_cache.tags.tagsinuse            0                       # Cycle average of tags in use
system.cpu.dtb_walker_cache.tags.total_refs            0                       # Total number of references to valid blocks.
system.cpu.dtb_walker_cache.tags.sampled_refs            0                       # Sample count of references to valid blocks.
system.cpu.dtb_walker_cache.tags.avg_refs          nan                       # Average number of references to valid blocks.
system.cpu.dtb_walker_cache.tags.warmup_cycle            0                       # Cycle when the warmup percentage was hit.
system.cpu.dtb_walker_cache.tags.tag_accesses            0                       # Number of tag accesses
system.cpu.dtb_walker_cache.tags.data_accesses            0                       # Number of data accesses
system.cpu.dcache.pwrStateResidencyTicks::UNDEFINED 415241242000                       # Cumulative time (in ticks) in various power states
system.cpu.dcache.demand_hits::.cpu.data            4                       # number of demand (read+write) hits
system.cpu.dcache.demand_hits::.switch_cpus.data      4342917                       # number of demand (read+write) hits
system.cpu.dcache.demand_hits::total          4342921                       # number of demand (read+write) hits
system.cpu.dcache.overall_hits::.cpu.data            4                       # number of overall hits
system.cpu.dcache.overall_hits::.switch_cpus.data      4342917                       # number of overall hits
system.cpu.dcache.overall_hits::total         4342921                       # number of overall hits
system.cpu.dcache.demand_misses::.cpu.data            3                       # number of demand (read+write) misses
system.cpu.dcache.demand_misses::.switch_cpus.data           28                       # number of demand (read+write) misses
system.cpu.dcache.demand_misses::total             31                       # number of demand (read+write) misses
system.cpu.dcache.overall_misses::.cpu.data            3                       # number of overall misses
system.cpu.dcache.overall_misses::.switch_cpus.data           28                       # number of overall misses
system.cpu.dcache.overall_misses::total            31                       # number of overall misses
system.cpu.dcache.demand_miss_latency::.switch_cpus.data      1830500                       # number of demand (read+write) miss cycles
system.cpu.dcache.demand_miss_latency::total      1830500                       # number of demand (read+write) miss cycles
system.cpu.dcache.overall_miss_latency::.switch_cpus.data      1830500                       # number of overall miss cycles
system.cpu.dcache.overall_miss_latency::total      1830500                       # number of overall miss cycles
system.cpu.dcache.demand_accesses::.cpu.data            7                       # number of demand (read+write) accesses
system.cpu.dcache.demand_accesses::.switch_cpus.data      4342945                       # number of demand (read+write) accesses
system.cpu.dcache.demand_accesses::total      4342952                       # number of demand (read+write) accesses
system.cpu.dcache.overall_accesses::.cpu.data            7                       # number of overall (read+write) accesses
system.cpu.dcache.overall_accesses::.switch_cpus.data      4342945                       # number of overall (read+write) accesses
system.cpu.dcache.overall_accesses::total      4342952                       # number of overall (read+write) accesses
system.cpu.dcache.demand_miss_rate::.cpu.data     0.428571                       # miss rate for demand accesses
system.cpu.dcache.demand_miss_rate::.switch_cpus.data     0.000006                       # miss rate for demand accesses
system.cpu.dcache.demand_miss_rate::total     0.000007                       # miss rate for demand accesses
system.cpu.dcache.overall_miss_rate::.cpu.data     0.428571                       # miss rate for overall accesses
system.cpu.dcache.overall_miss_rate::.switch_cpus.data     0.000006                       # miss rate for overall accesses
system.cpu.dcache.overall_miss_rate::total     0.000007                       # miss rate for overall accesses
system.cpu.dcache.demand_avg_miss_latency::.switch_cpus.data        65375                       # average overall miss latency
system.cpu.dcache.demand_avg_miss_latency::total 59048.387097                       # average overall miss latency
system.cpu.dcache.overall_avg_miss_latency::.switch_cpus.data        65375                       # average overall miss latency
system.cpu.dcache.overall_avg_miss_latency::total 59048.387097                       # average overall miss latency
system.cpu.dcache.blocked_cycles::no_mshrs            0                       # number of cycles access was blocked
system.cpu.dcache.blocked_cycles::no_targets            0                       # number of cycles access was blocked
system.cpu.dcache.blocked::no_mshrs                 0                       # number of cycles access was blocked
system.cpu.dcache.blocked::no_targets               0                       # number of cycles access was blocked
system.cpu.dcache.avg_blocked_cycles::no_mshrs          nan                       # average number of cycles each access was blocked
system.cpu.dcache.avg_blocked_cycles::no_targets          nan                       # average number of cycles each access was blocked
system.cpu.dcache.demand_mshr_hits::.switch_cpus.data           15                       # number of demand (read+write) MSHR hits
system.cpu.dcache.demand_mshr_hits::total           15                       # number of demand (read+write) MSHR hits
system.cpu.dcache.overall_mshr_hits::.switch_cpus.data           15                       # number of overall MSHR hits
system.cpu.dcache.overall_mshr_hits::total           15                       # number of overall MSHR hits
system.cpu.dcache.demand_mshr_misses::.switch_cpus.data           13                       # number of demand (read+write) MSHR misses
system.cpu.dcache.demand_mshr_misses::total           13                       # number of demand (read+write) MSHR misses
system.cpu.dcache.overall_mshr_misses::.switch_cpus.data           13                       # number of overall MSHR misses
system.cpu.dcache.overall_mshr_misses::total           13                       # number of overall MSHR misses
system.cpu.dcache.demand_mshr_miss_latency::.switch_cpus.data       940500                       # number of demand (read+write) MSHR miss cycles
system.cpu.dcache.demand_mshr_miss_latency::total       940500                       # number of demand (read+write) MSHR miss cycles
system.cpu.dcache.overall_mshr_miss_latency::.switch_cpus.data       940500                       # number of overall MSHR miss cycles
system.cpu.dcache.overall_mshr_miss_latency::total       940500                       # number of overall MSHR miss cycles
system.cpu.dcache.demand_mshr_miss_rate::.switch_cpus.data     0.000003                       # mshr miss rate for demand accesses
system.cpu.dcache.demand_mshr_miss_rate::total     0.000003                       # mshr miss rate for demand accesses
system.cpu.dcache.overall_mshr_miss_rate::.switch_cpus.data     0.000003                       # mshr miss rate for overall accesses
system.cpu.dcache.overall_mshr_miss_rate::total     0.000003                       # mshr miss rate for overall accesses
system.cpu.dcache.demand_avg_mshr_miss_latency::.switch_cpus.data 72346.153846                       # average overall mshr miss latency
system.cpu.dcache.demand_avg_mshr_miss_latency::total 72346.153846                       # average overall mshr miss latency
system.cpu.dcache.overall_avg_mshr_miss_latency::.switch_cpus.data 72346.153846                       # average overall mshr miss latency
system.cpu.dcache.overall_avg_mshr_miss_latency::total 72346.153846                       # average overall mshr miss latency
system.cpu.dcache.replacements                      0                       # number of replacements
system.cpu.dcache.ReadReq_hits::.cpu.data            3                       # number of ReadReq hits
system.cpu.dcache.ReadReq_hits::.switch_cpus.data      3258204                       # number of ReadReq hits
system.cpu.dcache.ReadReq_hits::total         3258207                       # number of ReadReq hits
system.cpu.dcache.ReadReq_misses::.cpu.data            3                       # number of ReadReq misses
system.cpu.dcache.ReadReq_misses::.switch_cpus.data           27                       # number of ReadReq misses
system.cpu.dcache.ReadReq_misses::total            30                       # number of ReadReq misses
system.cpu.dcache.ReadReq_miss_latency::.switch_cpus.data      1744000                       # number of ReadReq miss cycles
system.cpu.dcache.ReadReq_miss_latency::total      1744000                       # number of ReadReq miss cycles
system.cpu.dcache.ReadReq_accesses::.cpu.data            6                       # number of ReadReq accesses(hits+misses)
system.cpu.dcache.ReadReq_accesses::.switch_cpus.data      3258231                       # number of ReadReq accesses(hits+misses)
system.cpu.dcache.ReadReq_accesses::total      3258237                       # number of ReadReq accesses(hits+misses)
system.cpu.dcache.ReadReq_miss_rate::.cpu.data     0.500000                       # miss rate for ReadReq accesses
system.cpu.dcache.ReadReq_miss_rate::.switch_cpus.data     0.000008                       # miss rate for ReadReq accesses
system.cpu.dcache.ReadReq_miss_rate::total     0.000009                       # miss rate for ReadReq accesses
system.cpu.dcache.ReadReq_avg_miss_latency::.switch_cpus.data 64592.592593                       # average ReadReq miss latency
system.cpu.dcache.ReadReq_avg_miss_latency::total 58133.333333                       # average ReadReq miss latency
system.cpu.dcache.ReadReq_mshr_hits::.switch_cpus.data           15                       # number of ReadReq MSHR hits
system.cpu.dcache.ReadReq_mshr_hits::total           15                       # number of ReadReq MSHR hits
system.cpu.dcache.ReadReq_mshr_misses::.switch_cpus.data           12                       # number of ReadReq MSHR misses
system.cpu.dcache.ReadReq_mshr_misses::total           12                       # number of ReadReq MSHR misses
system.cpu.dcache.ReadReq_mshr_miss_latency::.switch_cpus.data       855000                       # number of ReadReq MSHR miss cycles
system.cpu.dcache.ReadReq_mshr_miss_latency::total       855000                       # number of ReadReq MSHR miss cycles
system.cpu.dcache.ReadReq_mshr_miss_rate::.switch_cpus.data     0.000004                       # mshr miss rate for ReadReq accesses
system.cpu.dcache.ReadReq_mshr_miss_rate::total     0.000004                       # mshr miss rate for ReadReq accesses
system.cpu.dcache.ReadReq_avg_mshr_miss_latency::.switch_cpus.data        71250                       # average ReadReq mshr miss latency
system.cpu.dcache.ReadReq_avg_mshr_miss_latency::total        71250                       # average ReadReq mshr miss latency
system.cpu.dcache.WriteReq_hits::.cpu.data            1                       # number of WriteReq hits
system.cpu.dcache.WriteReq_hits::.switch_cpus.data      1084713                       # number of WriteReq hits
system.cpu.dcache.WriteReq_hits::total        1084714                       # number of WriteReq hits
system.cpu.dcache.WriteReq_misses::.switch_cpus.data            1                       # number of WriteReq misses
system.cpu.dcache.WriteReq_misses::total            1                       # number of WriteReq misses
system.cpu.dcache.WriteReq_miss_latency::.switch_cpus.data        86500                       # number of WriteReq miss cycles
system.cpu.dcache.WriteReq_miss_latency::total        86500                       # number of WriteReq miss cycles
system.cpu.dcache.WriteReq_accesses::.cpu.data            1                       # number of WriteReq accesses(hits+misses)
system.cpu.dcache.WriteReq_accesses::.switch_cpus.data      1084714                       # number of WriteReq accesses(hits+misses)
system.cpu.dcache.WriteReq_accesses::total      1084715                       # number of WriteReq accesses(hits+misses)
system.cpu.dcache.WriteReq_miss_rate::.switch_cpus.data     0.000001                       # miss rate for WriteReq accesses
system.cpu.dcache.WriteReq_miss_rate::total     0.000001                       # miss rate for WriteReq accesses
system.cpu.dcache.WriteReq_avg_miss_latency::.switch_cpus.data        86500                       # average WriteReq miss latency
system.cpu.dcache.WriteReq_avg_miss_latency::total        86500                       # average WriteReq miss latency
system.cpu.dcache.WriteReq_mshr_misses::.switch_cpus.data            1                       # number of WriteReq MSHR misses
system.cpu.dcache.WriteReq_mshr_misses::total            1                       # number of WriteReq MSHR misses
system.cpu.dcache.WriteReq_mshr_miss_latency::.switch_cpus.data        85500                       # number of WriteReq MSHR miss cycles
system.cpu.dcache.WriteReq_mshr_miss_latency::total        85500                       # number of WriteReq MSHR miss cycles
system.cpu.dcache.WriteReq_mshr_miss_rate::.switch_cpus.data     0.000001                       # mshr miss rate for WriteReq accesses
system.cpu.dcache.WriteReq_mshr_miss_rate::total     0.000001                       # mshr miss rate for WriteReq accesses
system.cpu.dcache.WriteReq_avg_mshr_miss_latency::.switch_cpus.data        85500                       # average WriteReq mshr miss latency
system.cpu.dcache.WriteReq_avg_mshr_miss_latency::total        85500                       # average WriteReq mshr miss latency
system.cpu.dcache.tags.pwrStateResidencyTicks::UNDEFINED 415241242000                       # Cumulative time (in ticks) in various power states
system.cpu.dcache.tags.tagsinuse             0.126073                       # Cycle average of tags in use
system.cpu.dcache.tags.total_refs             4342937                       # Total number of references to valid blocks.
system.cpu.dcache.tags.sampled_refs                16                       # Sample count of references to valid blocks.
system.cpu.dcache.tags.avg_refs          271433.562500                       # Average number of references to valid blocks.
system.cpu.dcache.tags.warmup_cycle      411942648000                       # Cycle when the warmup percentage was hit.
system.cpu.dcache.tags.occ_blocks::.cpu.data     0.023831                       # Average occupied blocks per requestor
system.cpu.dcache.tags.occ_blocks::.switch_cpus.data     0.102242                       # Average occupied blocks per requestor
system.cpu.dcache.tags.occ_percent::.cpu.data     0.000023                       # Average percentage of cache occupancy
system.cpu.dcache.tags.occ_percent::.switch_cpus.data     0.000100                       # Average percentage of cache occupancy
system.cpu.dcache.tags.occ_percent::total     0.000123                       # Average percentage of cache occupancy
system.cpu.dcache.tags.occ_task_id_blocks::1024           16                       # Occupied blocks per task id
system.cpu.dcache.tags.age_task_id_blocks_1024::3           16                       # Occupied blocks per task id
system.cpu.dcache.tags.occ_task_id_percent::1024     0.015625                       # Percentage of cache occupancy per task id
system.cpu.dcache.tags.tag_accesses           8685920                       # Number of tag accesses
system.cpu.dcache.tags.data_accesses          8685920                       # Number of data accesses

---------- End Simulation Statistics   ----------
